@<TRIPOS>MOLECULE
Generated by mBuild
2058 2057 0 0 0
SMALL
NO_CHARGES

@<TRIPOS>ATOM
1 C  -1.5206   1.2408  -0.2418 C 1 RES   0.0000
2 C   0.0000   1.4086   0.0000 C 1 RES   0.0000
3 H  -1.6458   2.3330  -0.1280 H 1 RES   0.0000
4 H  -2.3759   1.2949   0.3869 H 1 RES   0.0000
5 C   0.8244   1.5018   1.2725 C 1 RES   0.0000
6 O   1.4175   2.6845   1.6032 O 1 RES   0.0000
7 C   2.5652   2.7128   2.3803 C 1 RES   0.0000
8 C   3.1281   4.1268   2.5068 C 1 RES   0.0000
9 H   3.3324   2.0949   1.8624 H 1 RES   0.0000
10 H   2.3810   2.2839   3.3899 H 1 RES   0.0000
11 O   4.4604   4.0443   2.9671 O 1 RES   0.0000
12 H   2.4519   4.7632   3.1201 H 1 RES   0.0000
13 H   3.1731   4.5863   1.4969 H 1 RES   0.0000
14 P   4.6520   4.7371   4.5628 P 1 RES   0.0000
15 O   3.9300   6.3134   4.6645 O 1 RES   0.0000
16 O   3.9510   3.7802   5.5657 O 1 RES   0.0000
17 O   6.3742   4.7812   4.9112 O 1 RES   0.0000
18 C   6.6273   4.9727   6.2861 C 1 RES   0.0000
19 C   6.7831   6.4773   6.6008 C 1 RES   0.0000
20 H   7.5783   4.4467   6.4943 H 1 RES   0.0000
21 H   5.8680   4.4832   6.9300 H 1 RES   0.0000
22 N   7.2075   6.8097   7.9971 N 1 RES   0.0000
23 H   5.8075   6.9644   6.3805 H 1 RES   0.0000
24 H   7.5252   6.8948   5.8818 H 1 RES   0.0000
25 C   7.2413   8.2870   8.1251 C 1 RES   0.0000
26 H   6.2378   8.7295   7.9338 H 1 RES   0.0000
27 H   7.9565   8.7373   7.3990 H 1 RES   0.0000
28 H   7.5566   8.6001   9.1461 H 1 RES   0.0000
29 C   8.5669   6.2926   8.2885 C 1 RES   0.0000
30 H   8.5949   5.1824   8.2989 H 1 RES   0.0000
31 H   8.9147   6.6237   9.2934 H 1 RES   0.0000
32 H   9.3033   6.6560   7.5371 H 1 RES   0.0000
33 C   6.2533   6.2781   8.9993 C 1 RES   0.0000
34 H   5.2182   6.6283   8.7902 H 1 RES   0.0000
35 H   6.5276   6.6082  10.0265 H 1 RES   0.0000
36 H   6.2538   5.1677   9.0174 H 1 RES   0.0000
37 H  -1.8005   0.9388  -1.1208 H 1 RES   0.0000
38 C   0.0000   0.0000   0.0000 C 1 RES   0.0000
39 H  -0.5008  -0.0452  -0.9311 H 1 RES   0.0000
40 H  -0.7345  -0.4704   0.3080 H 1 RES   0.0000
41 O   1.2259   0.5592   2.0501 O 1 RES   0.0000
42 C  -0.9042   4.0580  -1.2462 C 1 RES   0.0000
43 C   0.0000   4.2257   0.0000 C 1 RES   0.0000
44 H  -1.0733   5.1502  -1.2543 H 1 RES   0.0000
45 H  -1.9536   4.1121  -1.4064 H 1 RES   0.0000
46 C  -0.3168   4.3190   1.4827 C 1 RES   0.0000
47 O  -0.1314   5.5017   2.1359 O 1 RES   0.0000
48 C   0.1308   5.5299   3.4970 C 1 RES   0.0000
49 C   0.4394   6.9439   3.9845 C 1 RES   0.0000
50 H   1.0395   4.9120   3.6733 H 1 RES   0.0000
51 H  -0.7134   5.1010   4.0807 H 1 RES   0.0000
52 O   1.0559   6.8615   5.2520 O 1 RES   0.0000
53 H  -0.4725   7.5803   3.9400 H 1 RES   0.0000
54 H   1.1852   7.4035   3.3022 H 1 RES   0.0000
55 P   0.0631   7.5543   6.5158 P 1 RES   0.0000
56 O  -0.5194   9.1305   6.0772 O 1 RES   0.0000
57 O  -1.1418   6.5973   6.7293 O 1 RES   0.0000
58 O   1.0345   7.5984   7.9799 O 1 RES   0.0000
59 C   0.2412   7.7899   9.1312 C 1 RES   0.0000
60 C   0.1289   9.2945   9.4639 C 1 RES   0.0000
61 H   0.7666   7.2639   9.9508 H 1 RES   0.0000
62 H  -0.7509   7.3004   9.0496 H 1 RES   0.0000
63 N  -0.5583   9.6269  10.7513 N 1 RES   0.0000
64 H  -0.4052   9.7816   8.6182 H 1 RES   0.0000
65 H   1.1621   9.7120   9.4802 H 1 RES   0.0000
66 C  -0.6249  11.1041  10.8656 C 1 RES   0.0000
67 H  -1.1992  11.5467  10.0209 H 1 RES   0.0000
68 H   0.3942  11.5545  10.8580 H 1 RES   0.0000
69 H  -1.1239  11.4172  11.8106 H 1 RES   0.0000
70 C   0.1969   9.1097  11.9185 C 1 RES   0.0000
71 H   0.2093   7.9996  11.9458 H 1 RES   0.0000
72 H  -0.2678   9.4408  12.8751 H 1 RES   0.0000
73 H   1.2488   9.4732  11.9080 H 1 RES   0.0000
74 C  -1.9418   9.0953  10.7852 C 1 RES   0.0000
75 H  -2.5258   9.4454   9.9054 H 1 RES   0.0000
76 H  -2.4741   9.4254  11.7055 H 1 RES   0.0000
77 H  -1.9541   7.9848  10.7984 H 1 RES   0.0000
78 H  -0.4806   3.7559  -2.0656 H 1 RES   0.0000
79 C   0.0000   2.8172   0.0000 C 1 RES   0.0000
80 H   0.3042   2.7719  -1.0125 H 1 RES   0.0000
81 H  -0.7372   2.3468  -0.3016 H 1 RES   0.0000
82 O  -0.5828   3.3763   2.3164 O 1 RES   0.0000
83 C   0.2418   6.8751  -1.5206 C 1 RES   0.0000
84 C   0.0000   7.0429   0.0000 C 1 RES   0.0000
85 H   0.1280   7.9673  -1.6458 H 1 RES   0.0000
86 H  -0.3869   6.9292  -2.3759 H 1 RES   0.0000
87 C  -1.2725   7.1361   0.8244 C 1 RES   0.0000
88 O  -1.6032   8.3188   1.4175 O 1 RES   0.0000
89 C  -2.3803   8.3471   2.5652 C 1 RES   0.0000
90 C  -2.5068   9.7611   3.1281 C 1 RES   0.0000
91 H  -1.8624   7.7292   3.3324 H 1 RES   0.0000
92 H  -3.3899   7.9182   2.3810 H 1 RES   0.0000
93 O  -2.9671   9.6787   4.4604 O 1 RES   0.0000
94 H  -3.1201  10.3975   2.4519 H 1 RES   0.0000
95 H  -1.4969  10.2206   3.1731 H 1 RES   0.0000
96 P  -4.5628  10.3714   4.6520 P 1 RES   0.0000
97 O  -4.6645  11.9477   3.9300 O 1 RES   0.0000
98 O  -5.5657   9.4145   3.9510 O 1 RES   0.0000
99 O  -4.9112  10.4155   6.3742 O 1 RES   0.0000
100 C  -6.2861  10.6070   6.6273 C 1 RES   0.0000
101 C  -6.6008  12.1116   6.7831 C 1 RES   0.0000
102 H  -6.4943  10.0810   7.5783 H 1 RES   0.0000
103 H  -6.9300  10.1175   5.8680 H 1 RES   0.0000
104 N  -7.9971  12.4440   7.2075 N 1 RES   0.0000
105 H  -6.3805  12.5987   5.8075 H 1 RES   0.0000
106 H  -5.8818  12.5291   7.5252 H 1 RES   0.0000
107 C  -8.1251  13.9213   7.2413 C 1 RES   0.0000
108 H  -7.9338  14.3638   6.2378 H 1 RES   0.0000
109 H  -7.3990  14.3716   7.9565 H 1 RES   0.0000
110 H  -9.1461  14.2344   7.5566 H 1 RES   0.0000
111 C  -8.2885  11.9269   8.5669 C 1 RES   0.0000
112 H  -8.2989  10.8167   8.5949 H 1 RES   0.0000
113 H  -9.2934  12.2580   8.9147 H 1 RES   0.0000
114 H  -7.5371  12.2903   9.3033 H 1 RES   0.0000
115 C  -8.9993  11.9124   6.2533 C 1 RES   0.0000
116 H  -8.7902  12.2626   5.2182 H 1 RES   0.0000
117 H -10.0265  12.2425   6.5276 H 1 RES   0.0000
118 H  -9.0174  10.8020   6.2538 H 1 RES   0.0000
119 H   1.1208   6.5731  -1.8005 H 1 RES   0.0000
120 C   0.0000   5.6343   0.0000 C 1 RES   0.0000
121 H   0.9311   5.5891  -0.5008 H 1 RES   0.0000
122 H  -0.3080   5.1639  -0.7345 H 1 RES   0.0000
123 O  -2.0501   6.1935   1.2259 O 1 RES   0.0000
124 C   1.2462   9.6923  -0.9042 C 1 RES   0.0000
125 C   0.0000   9.8600   0.0000 C 1 RES   0.0000
126 H   1.2543  10.7845  -1.0733 H 1 RES   0.0000
127 H   1.4064   9.7464  -1.9536 H 1 RES   0.0000
128 C  -1.4827   9.9533  -0.3168 C 1 RES   0.0000
129 O  -2.1359  11.1360  -0.1314 O 1 RES   0.0000
130 C  -3.4970  11.1643   0.1308 C 1 RES   0.0000
131 C  -3.9845  12.5782   0.4394 C 1 RES   0.0000
132 H  -3.6733  10.5463   1.0395 H 1 RES   0.0000
133 H  -4.0807  10.7353  -0.7134 H 1 RES   0.0000
134 O  -5.2520  12.4958   1.0559 O 1 RES   0.0000
135 H  -3.9400  13.2146  -0.4725 H 1 RES   0.0000
136 H  -3.3022  13.0378   1.1852 H 1 RES   0.0000
137 P  -6.5158  13.1886   0.0631 P 1 RES   0.0000
138 O  -6.0772  14.7648  -0.5194 O 1 RES   0.0000
139 O  -6.7293  12.2317  -1.1418 O 1 RES   0.0000
140 O  -7.9799  13.2327   1.0345 O 1 RES   0.0000
141 C  -9.1312  13.4242   0.2412 C 1 RES   0.0000
142 C  -9.4639  14.9288   0.1289 C 1 RES   0.0000
143 H  -9.9508  12.8982   0.7666 H 1 RES   0.0000
144 H  -9.0496  12.9347  -0.7509 H 1 RES   0.0000
145 N -10.7513  15.2612  -0.5583 N 1 RES   0.0000
146 H  -8.6182  15.4159  -0.4052 H 1 RES   0.0000
147 H  -9.4802  15.3463   1.1621 H 1 RES   0.0000
148 C -10.8656  16.7384  -0.6249 C 1 RES   0.0000
149 H -10.0209  17.1810  -1.1992 H 1 RES   0.0000
150 H -10.8580  17.1888   0.3942 H 1 RES   0.0000
151 H -11.8106  17.0515  -1.1239 H 1 RES   0.0000
152 C -11.9185  14.7440   0.1969 C 1 RES   0.0000
153 H -11.9458  13.6339   0.2093 H 1 RES   0.0000
154 H -12.8751  15.0751  -0.2678 H 1 RES   0.0000
155 H -11.9080  15.1075   1.2488 H 1 RES   0.0000
156 C -10.7852  14.7296  -1.9418 C 1 RES   0.0000
157 H  -9.9054  15.0797  -2.5258 H 1 RES   0.0000
158 H -11.7055  15.0597  -2.4741 H 1 RES   0.0000
159 H -10.7984  13.6191  -1.9541 H 1 RES   0.0000
160 H   2.0656   9.3903  -0.4806 H 1 RES   0.0000
161 C   0.0000   8.4515   0.0000 C 1 RES   0.0000
162 H   1.0125   8.4062   0.3042 H 1 RES   0.0000
163 H   0.3016   7.9811  -0.7372 H 1 RES   0.0000
164 O  -2.3164   9.0106  -0.5828 O 1 RES   0.0000
165 C   1.5206  12.5095   0.2418 C 1 RES   0.0000
166 C   0.0000  12.6772   0.0000 C 1 RES   0.0000
167 H   1.6458  13.6016   0.1280 H 1 RES   0.0000
168 H   2.3759  12.5635  -0.3869 H 1 RES   0.0000
169 C  -0.8244  12.7704  -1.2725 C 1 RES   0.0000
170 O  -1.4175  13.9531  -1.6032 O 1 RES   0.0000
171 C  -2.5652  13.9814  -2.3803 C 1 RES   0.0000
172 C  -3.1281  15.3954  -2.5068 C 1 RES   0.0000
173 H  -3.3324  13.3635  -1.8624 H 1 RES   0.0000
174 H  -2.3810  13.5525  -3.3899 H 1 RES   0.0000
175 O  -4.4604  15.3130  -2.9671 O 1 RES   0.0000
176 H  -2.4519  16.0318  -3.1201 H 1 RES   0.0000
177 H  -3.1731  15.8549  -1.4969 H 1 RES   0.0000
178 P  -4.6520  16.0057  -4.5628 P 1 RES   0.0000
179 O  -3.9300  17.5820  -4.6645 O 1 RES   0.0000
180 O  -3.9510  15.0488  -5.5657 O 1 RES   0.0000
181 O  -6.3742  16.0498  -4.9112 O 1 RES   0.0000
182 C  -6.6273  16.2413  -6.2861 C 1 RES   0.0000
183 C  -6.7831  17.7459  -6.6008 C 1 RES   0.0000
184 H  -7.5783  15.7153  -6.4943 H 1 RES   0.0000
185 H  -5.8680  15.7518  -6.9300 H 1 RES   0.0000
186 N  -7.2075  18.0783  -7.9971 N 1 RES   0.0000
187 H  -5.8075  18.2330  -6.3805 H 1 RES   0.0000
188 H  -7.5252  18.1634  -5.8818 H 1 RES   0.0000
189 C  -7.2413  19.5556  -8.1251 C 1 RES   0.0000
190 H  -6.2378  19.9981  -7.9338 H 1 RES   0.0000
191 H  -7.9565  20.0059  -7.3990 H 1 RES   0.0000
192 H  -7.5566  19.8687  -9.1461 H 1 RES   0.0000
193 C  -8.5669  17.5612  -8.2885 C 1 RES   0.0000
194 H  -8.5949  16.4510  -8.2989 H 1 RES   0.0000
195 H  -8.9147  17.8923  -9.2934 H 1 RES   0.0000
196 H  -9.3033  17.9246  -7.5371 H 1 RES   0.0000
197 C  -6.2533  17.5467  -8.9993 C 1 RES   0.0000
198 H  -5.2182  17.8969  -8.7902 H 1 RES   0.0000
199 H  -6.5276  17.8768 -10.0265 H 1 RES   0.0000
200 H  -6.2538  16.4363  -9.0174 H 1 RES   0.0000
201 H   1.8005  12.2074   1.1208 H 1 RES   0.0000
202 C   0.0000  11.2686   0.0000 C 1 RES   0.0000
203 H   0.5008  11.2234   0.9311 H 1 RES   0.0000
204 H   0.7345  10.7982  -0.3080 H 1 RES   0.0000
205 O  -1.2259  11.8278  -2.0501 O 1 RES   0.0000
206 C   0.9042  15.3266   1.2462 C 1 RES   0.0000
207 C   0.0000  15.4943   0.0000 C 1 RES   0.0000
208 H   1.0733  16.4188   1.2543 H 1 RES   0.0000
209 H   1.9536  15.3807   1.4064 H 1 RES   0.0000
210 C   0.3168  15.5876  -1.4827 C 1 RES   0.0000
211 O   0.1314  16.7703  -2.1359 O 1 RES   0.0000
212 C  -0.1308  16.7986  -3.4970 C 1 RES   0.0000
213 C  -0.4394  18.2125  -3.9845 C 1 RES   0.0000
214 H  -1.0395  16.1807  -3.6733 H 1 RES   0.0000
215 H   0.7134  16.3696  -4.0807 H 1 RES   0.0000
216 O  -1.0559  18.1301  -5.2520 O 1 RES   0.0000
217 H   0.4725  18.8489  -3.9400 H 1 RES   0.0000
218 H  -1.1852  18.6721  -3.3022 H 1 RES   0.0000
219 P  -0.0631  18.8229  -6.5158 P 1 RES   0.0000
220 O   0.5194  20.3991  -6.0772 O 1 RES   0.0000
221 O   1.1418  17.8660  -6.7293 O 1 RES   0.0000
222 O  -1.0345  18.8670  -7.9799 O 1 RES   0.0000
223 C  -0.2412  19.0585  -9.1312 C 1 RES   0.0000
224 C  -0.1289  20.5631  -9.4639 C 1 RES   0.0000
225 H  -0.7666  18.5325  -9.9508 H 1 RES   0.0000
226 H   0.7509  18.5690  -9.0496 H 1 RES   0.0000
227 N   0.5583  20.8955 -10.7513 N 1 RES   0.0000
228 H   0.4052  21.0502  -8.6182 H 1 RES   0.0000
229 H  -1.1621  20.9806  -9.4802 H 1 RES   0.0000
230 C   0.6249  22.3727 -10.8656 C 1 RES   0.0000
231 H   1.1992  22.8153 -10.0209 H 1 RES   0.0000
232 H  -0.3942  22.8231 -10.8580 H 1 RES   0.0000
233 H   1.1239  22.6858 -11.8106 H 1 RES   0.0000
234 C  -0.1969  20.3783 -11.9185 C 1 RES   0.0000
235 H  -0.2093  19.2682 -11.9458 H 1 RES   0.0000
236 H   0.2678  20.7094 -12.8751 H 1 RES   0.0000
237 H  -1.2488  20.7418 -11.9080 H 1 RES   0.0000
238 C   1.9418  20.3639 -10.7852 C 1 RES   0.0000
239 H   2.5258  20.7141  -9.9054 H 1 RES   0.0000
240 H   2.4741  20.6940 -11.7055 H 1 RES   0.0000
241 H   1.9541  19.2534 -10.7984 H 1 RES   0.0000
242 H   0.4806  15.0246   2.0656 H 1 RES   0.0000
243 C   0.0000  14.0858   0.0000 C 1 RES   0.0000
244 H  -0.3042  14.0405   1.0125 H 1 RES   0.0000
245 H   0.7372  13.6154   0.3016 H 1 RES   0.0000
246 O   0.5828  14.6449  -2.3164 O 1 RES   0.0000
247 C  -0.2418  18.1438   1.5206 C 1 RES   0.0000
248 C   0.0000  18.3115   0.0000 C 1 RES   0.0000
249 H  -0.1280  19.2359   1.6458 H 1 RES   0.0000
250 H   0.3869  18.1978   2.3759 H 1 RES   0.0000
251 C   1.2725  18.4047  -0.8244 C 1 RES   0.0000
252 O   1.6032  19.5875  -1.4175 O 1 RES   0.0000
253 C   2.3803  19.6157  -2.5652 C 1 RES   0.0000
254 C   2.5068  21.0297  -3.1281 C 1 RES   0.0000
255 H   1.8624  18.9978  -3.3324 H 1 RES   0.0000
256 H   3.3899  19.1868  -2.3810 H 1 RES   0.0000
257 O   2.9671  20.9473  -4.4604 O 1 RES   0.0000
258 H   3.1201  21.6661  -2.4519 H 1 RES   0.0000
259 H   1.4969  21.4892  -3.1731 H 1 RES   0.0000
260 P   4.5628  21.6400  -4.6520 P 1 RES   0.0000
261 O   4.6645  23.2163  -3.9300 O 1 RES   0.0000
262 O   5.5657  20.6831  -3.9510 O 1 RES   0.0000
263 O   4.9112  21.6841  -6.3742 O 1 RES   0.0000
264 C   6.2861  21.8756  -6.6273 C 1 RES   0.0000
265 C   6.6008  23.3802  -6.7831 C 1 RES   0.0000
266 H   6.4943  21.3496  -7.5783 H 1 RES   0.0000
267 H   6.9300  21.3861  -5.8680 H 1 RES   0.0000
268 N   7.9971  23.7126  -7.2075 N 1 RES   0.0000
269 H   6.3805  23.8673  -5.8075 H 1 RES   0.0000
270 H   5.8818  23.7977  -7.5252 H 1 RES   0.0000
271 C   8.1251  25.1899  -7.2413 C 1 RES   0.0000
272 H   7.9338  25.6324  -6.2378 H 1 RES   0.0000
273 H   7.3990  25.6402  -7.9565 H 1 RES   0.0000
274 H   9.1461  25.5030  -7.5566 H 1 RES   0.0000
275 C   8.2885  23.1955  -8.5669 C 1 RES   0.0000
276 H   8.2989  22.0853  -8.5949 H 1 RES   0.0000
277 H   9.2934  23.5266  -8.9147 H 1 RES   0.0000
278 H   7.5371  23.5589  -9.3033 H 1 RES   0.0000
279 C   8.9993  23.1810  -6.2533 C 1 RES   0.0000
280 H   8.7902  23.5312  -5.2182 H 1 RES   0.0000
281 H  10.0265  23.5112  -6.5276 H 1 RES   0.0000
282 H   9.0174  22.0706  -6.2538 H 1 RES   0.0000
283 H  -1.1208  17.8417   1.8005 H 1 RES   0.0000
284 C   0.0000  16.9029   0.0000 C 1 RES   0.0000
285 H  -0.9311  16.8577   0.5008 H 1 RES   0.0000
286 H   0.3080  16.4326   0.7345 H 1 RES   0.0000
287 O   2.0501  17.4621  -1.2259 O 1 RES   0.0000
288 C  -1.2462  20.9609   0.9042 C 1 RES   0.0000
289 C  -0.0000  21.1287   0.0000 C 1 RES   0.0000
290 H  -1.2543  22.0531   1.0733 H 1 RES   0.0000
291 H  -1.4064  21.0150   1.9536 H 1 RES   0.0000
292 C   1.4827  21.2219   0.3168 C 1 RES   0.0000
293 O   2.1359  22.4046   0.1314 O 1 RES   0.0000
294 C   3.4970  22.4329  -0.1308 C 1 RES   0.0000
295 C   3.9845  23.8469  -0.4394 C 1 RES   0.0000
296 H   3.6733  21.8150  -1.0395 H 1 RES   0.0000
297 H   4.0807  22.0040   0.7134 H 1 RES   0.0000
298 O   5.2520  23.7644  -1.0559 O 1 RES   0.0000
299 H   3.9400  24.4833   0.4725 H 1 RES   0.0000
300 H   3.3022  24.3064  -1.1852 H 1 RES   0.0000
301 P   6.5158  24.4572  -0.0631 P 1 RES   0.0000
302 O   6.0772  26.0334   0.5194 O 1 RES   0.0000
303 O   6.7293  23.5003   1.1418 O 1 RES   0.0000
304 O   7.9799  24.5013  -1.0345 O 1 RES   0.0000
305 C   9.1312  24.6928  -0.2412 C 1 RES   0.0000
306 C   9.4639  26.1974  -0.1289 C 1 RES   0.0000
307 H   9.9508  24.1668  -0.7666 H 1 RES   0.0000
308 H   9.0496  24.2033   0.7509 H 1 RES   0.0000
309 N  10.7513  26.5298   0.5583 N 1 RES   0.0000
310 H   8.6182  26.6845   0.4052 H 1 RES   0.0000
311 H   9.4802  26.6149  -1.1621 H 1 RES   0.0000
312 C  10.8656  28.0070   0.6249 C 1 RES   0.0000
313 H  10.0209  28.4496   1.1992 H 1 RES   0.0000
314 H  10.8580  28.4574  -0.3942 H 1 RES   0.0000
315 H  11.8106  28.3201   1.1239 H 1 RES   0.0000
316 C  11.9185  26.0126  -0.1969 C 1 RES   0.0000
317 H  11.9458  24.9025  -0.2093 H 1 RES   0.0000
318 H  12.8751  26.3438   0.2678 H 1 RES   0.0000
319 H  11.9080  26.3761  -1.2488 H 1 RES   0.0000
320 C  10.7852  25.9982   1.9418 C 1 RES   0.0000
321 H   9.9054  26.3484   2.5258 H 1 RES   0.0000
322 H  11.7055  26.3283   2.4741 H 1 RES   0.0000
323 H  10.7984  24.8877   1.9541 H 1 RES   0.0000
324 H  -2.0656  20.6589   0.4806 H 1 RES   0.0000
325 C   0.0000  19.7201   0.0000 C 1 RES   0.0000
326 H  -1.0125  19.6748  -0.3042 H 1 RES   0.0000
327 H  -0.3016  19.2497   0.7372 H 1 RES   0.0000
328 O   2.3164  20.2793   0.5828 O 1 RES   0.0000
329 C  -1.5206  23.7781  -0.2418 C 1 RES   0.0000
330 C  -0.0000  23.9458   0.0000 C 1 RES   0.0000
331 H  -1.6458  24.8702  -0.1280 H 1 RES   0.0000
332 H  -2.3759  23.8321   0.3869 H 1 RES   0.0000
333 C   0.8244  24.0390   1.2725 C 1 RES   0.0000
334 O   1.4175  25.2218   1.6032 O 1 RES   0.0000
335 C   2.5652  25.2500   2.3803 C 1 RES   0.0000
336 C   3.1281  26.6640   2.5068 C 1 RES   0.0000
337 H   3.3324  24.6321   1.8624 H 1 RES   0.0000
338 H   2.3810  24.8211   3.3899 H 1 RES   0.0000
339 O   4.4604  26.5816   2.9671 O 1 RES   0.0000
340 H   2.4519  27.3004   3.1201 H 1 RES   0.0000
341 H   3.1731  27.1235   1.4969 H 1 RES   0.0000
342 P   4.6520  27.2743   4.5628 P 1 RES   0.0000
343 O   3.9300  28.8506   4.6645 O 1 RES   0.0000
344 O   3.9510  26.3174   5.5657 O 1 RES   0.0000
345 O   6.3742  27.3184   4.9112 O 1 RES   0.0000
346 C   6.6273  27.5099   6.2861 C 1 RES   0.0000
347 C   6.7831  29.0146   6.6008 C 1 RES   0.0000
348 H   7.5783  26.9839   6.4943 H 1 RES   0.0000
349 H   5.8680  27.0205   6.9300 H 1 RES   0.0000
350 N   7.2075  29.3469   7.9971 N 1 RES   0.0000
351 H   5.8075  29.5016   6.3805 H 1 RES   0.0000
352 H   7.5252  29.4320   5.8818 H 1 RES   0.0000
353 C   7.2413  30.8242   8.1251 C 1 RES   0.0000
354 H   6.2378  31.2667   7.9338 H 1 RES   0.0000
355 H   7.9565  31.2745   7.3990 H 1 RES   0.0000
356 H   7.5566  31.1373   9.1461 H 1 RES   0.0000
357 C   8.5669  28.8298   8.2885 C 1 RES   0.0000
358 H   8.5949  27.7196   8.2989 H 1 RES   0.0000
359 H   8.9147  29.1609   9.2934 H 1 RES   0.0000
360 H   9.3033  29.1933   7.5371 H 1 RES   0.0000
361 C   6.2533  28.8153   8.9993 C 1 RES   0.0000
362 H   5.2182  29.1655   8.7902 H 1 RES   0.0000
363 H   6.5276  29.1455  10.0265 H 1 RES   0.0000
364 H   6.2538  27.7049   9.0174 H 1 RES   0.0000
365 H  -1.8005  23.4760  -1.1208 H 1 RES   0.0000
366 C  -0.0000  22.5372   0.0000 C 1 RES   0.0000
367 H  -0.5008  22.4920  -0.9311 H 1 RES   0.0000
368 H  -0.7345  22.0669   0.3080 H 1 RES   0.0000
369 O   1.2259  23.0964   2.0501 O 1 RES   0.0000
370 C  -0.9042  26.5952  -1.2462 C 1 RES   0.0000
371 C  -0.0000  26.7630   0.0000 C 1 RES   0.0000
372 H  -1.0733  27.6874  -1.2543 H 1 RES   0.0000
373 H  -1.9536  26.6493  -1.4064 H 1 RES   0.0000
374 C  -0.3168  26.8562   1.4827 C 1 RES   0.0000
375 O  -0.1314  28.0389   2.1359 O 1 RES   0.0000
376 C   0.1308  28.0672   3.4970 C 1 RES   0.0000
377 C   0.4394  29.4812   3.9845 C 1 RES   0.0000
378 H   1.0395  27.4493   3.6733 H 1 RES   0.0000
379 H  -0.7134  27.6383   4.0807 H 1 RES   0.0000
380 O   1.0559  29.3987   5.2520 O 1 RES   0.0000
381 H  -0.4725  30.1176   3.9400 H 1 RES   0.0000
382 H   1.1852  29.9407   3.3022 H 1 RES   0.0000
383 P   0.0631  30.0915   6.5158 P 1 RES   0.0000
384 O  -0.5194  31.6677   6.0772 O 1 RES   0.0000
385 O  -1.1418  29.1346   6.7293 O 1 RES   0.0000
386 O   1.0345  30.1356   7.9799 O 1 RES   0.0000
387 C   0.2412  30.3271   9.1312 C 1 RES   0.0000
388 C   0.1289  31.8317   9.4639 C 1 RES   0.0000
389 H   0.7666  29.8011   9.9508 H 1 RES   0.0000
390 H  -0.7509  29.8376   9.0496 H 1 RES   0.0000
391 N  -0.5583  32.1641  10.7513 N 1 RES   0.0000
392 H  -0.4052  32.3188   8.6182 H 1 RES   0.0000
393 H   1.1621  32.2492   9.4802 H 1 RES   0.0000
394 C  -0.6249  33.6413  10.8656 C 1 RES   0.0000
395 H  -1.1992  34.0839  10.0209 H 1 RES   0.0000
396 H   0.3942  34.0917  10.8580 H 1 RES   0.0000
397 H  -1.1239  33.9544  11.8106 H 1 RES   0.0000
398 C   0.1969  31.6469  11.9185 C 1 RES   0.0000
399 H   0.2093  30.5368  11.9458 H 1 RES   0.0000
400 H  -0.2678  31.9781  12.8751 H 1 RES   0.0000
401 H   1.2488  32.0104  11.9080 H 1 RES   0.0000
402 C  -1.9418  31.6325  10.7852 C 1 RES   0.0000
403 H  -2.5258  31.9827   9.9054 H 1 RES   0.0000
404 H  -2.4741  31.9626  11.7055 H 1 RES   0.0000
405 H  -1.9541  30.5220  10.7984 H 1 RES   0.0000
406 H  -0.4806  26.2932  -2.0656 H 1 RES   0.0000
407 C  -0.0000  25.3544   0.0000 C 1 RES   0.0000
408 H   0.3042  25.3091  -1.0125 H 1 RES   0.0000
409 H  -0.7372  24.8840  -0.3016 H 1 RES   0.0000
410 O  -0.5828  25.9136   2.3164 O 1 RES   0.0000
411 C   0.2418  29.4124  -1.5206 C 1 RES   0.0000
412 C  -0.0000  29.5801   0.0000 C 1 RES   0.0000
413 H   0.1280  30.5045  -1.6458 H 1 RES   0.0000
414 H  -0.3869  29.4664  -2.3759 H 1 RES   0.0000
415 C  -1.2725  29.6733   0.8244 C 1 RES   0.0000
416 O  -1.6032  30.8561   1.4175 O 1 RES   0.0000
417 C  -2.3803  30.8843   2.5652 C 1 RES   0.0000
418 C  -2.5068  32.2983   3.1281 C 1 RES   0.0000
419 H  -1.8624  30.2664   3.3324 H 1 RES   0.0000
420 H  -3.3899  30.4554   2.3810 H 1 RES   0.0000
421 O  -2.9671  32.2159   4.4604 O 1 RES   0.0000
422 H  -3.1201  32.9347   2.4519 H 1 RES   0.0000
423 H  -1.4969  32.7579   3.1731 H 1 RES   0.0000
424 P  -4.5628  32.9086   4.6520 P 1 RES   0.0000
425 O  -4.6645  34.4849   3.9300 O 1 RES   0.0000
426 O  -5.5657  31.9517   3.9510 O 1 RES   0.0000
427 O  -4.9112  32.9527   6.3742 O 1 RES   0.0000
428 C  -6.2861  33.1443   6.6273 C 1 RES   0.0000
429 C  -6.6008  34.6489   6.7831 C 1 RES   0.0000
430 H  -6.4943  32.6182   7.5783 H 1 RES   0.0000
431 H  -6.9300  32.6548   5.8680 H 1 RES   0.0000
432 N  -7.9971  34.9812   7.2075 N 1 RES   0.0000
433 H  -6.3805  35.1359   5.8075 H 1 RES   0.0000
434 H  -5.8818  35.0663   7.5252 H 1 RES   0.0000
435 C  -8.1251  36.4585   7.2413 C 1 RES   0.0000
436 H  -7.9338  36.9010   6.2378 H 1 RES   0.0000
437 H  -7.3990  36.9089   7.9565 H 1 RES   0.0000
438 H  -9.1461  36.7716   7.5566 H 1 RES   0.0000
439 C  -8.2885  34.4641   8.5669 C 1 RES   0.0000
440 H  -8.2989  33.3540   8.5949 H 1 RES   0.0000
441 H  -9.2934  34.7952   8.9147 H 1 RES   0.0000
442 H  -7.5371  34.8276   9.3033 H 1 RES   0.0000
443 C  -8.9993  34.4496   6.2533 C 1 RES   0.0000
444 H  -8.7902  34.7998   5.2182 H 1 RES   0.0000
445 H -10.0265  34.7798   6.5276 H 1 RES   0.0000
446 H  -9.0174  33.3392   6.2538 H 1 RES   0.0000
447 H   1.1208  29.1103  -1.8005 H 1 RES   0.0000
448 C  -0.0000  28.1715   0.0000 C 1 RES   0.0000
449 H   0.9311  28.1263  -0.5008 H 1 RES   0.0000
450 H  -0.3080  27.7012  -0.7345 H 1 RES   0.0000
451 O  -2.0501  28.7307   1.2259 O 1 RES   0.0000
452 C   1.2462  32.2295  -0.9042 C 1 RES   0.0000
453 C  -0.0000  32.3973   0.0000 C 1 RES   0.0000
454 H   1.2543  33.3217  -1.0733 H 1 RES   0.0000
455 H   1.4064  32.2836  -1.9536 H 1 RES   0.0000
456 C  -1.4827  32.4905  -0.3168 C 1 RES   0.0000
457 O  -2.1359  33.6732  -0.1314 O 1 RES   0.0000
458 C  -3.4970  33.7015   0.1308 C 1 RES   0.0000
459 C  -3.9845  35.1155   0.4394 C 1 RES   0.0000
460 H  -3.6733  33.0836   1.0395 H 1 RES   0.0000
461 H  -4.0807  33.2726  -0.7134 H 1 RES   0.0000
462 O  -5.2520  35.0330   1.0559 O 1 RES   0.0000
463 H  -3.9400  35.7519  -0.4725 H 1 RES   0.0000
464 H  -3.3022  35.5750   1.1852 H 1 RES   0.0000
465 P  -6.5158  35.7258   0.0631 P 1 RES   0.0000
466 O  -6.0772  37.3021  -0.5194 O 1 RES   0.0000
467 O  -6.7293  34.7689  -1.1418 O 1 RES   0.0000
468 O  -7.9799  35.7699   1.0345 O 1 RES   0.0000
469 C  -9.1312  35.9614   0.2412 C 1 RES   0.0000
470 C  -9.4639  37.4660   0.1289 C 1 RES   0.0000
471 H  -9.9508  35.4354   0.7666 H 1 RES   0.0000
472 H  -9.0496  35.4719  -0.7509 H 1 RES   0.0000
473 N -10.7513  37.7984  -0.5583 N 1 RES   0.0000
474 H  -8.6182  37.9531  -0.4052 H 1 RES   0.0000
475 H  -9.4802  37.8835   1.1621 H 1 RES   0.0000
476 C -10.8656  39.2757  -0.6249 C 1 RES   0.0000
477 H -10.0209  39.7182  -1.1992 H 1 RES   0.0000
478 H -10.8580  39.7260   0.3942 H 1 RES   0.0000
479 H -11.8106  39.5887  -1.1239 H 1 RES   0.0000
480 C -11.9185  37.2812   0.1969 C 1 RES   0.0000
481 H -11.9458  36.1711   0.2093 H 1 RES   0.0000
482 H -12.8751  37.6124  -0.2678 H 1 RES   0.0000
483 H -11.9080  37.6447   1.2488 H 1 RES   0.0000
484 C -10.7852  37.2668  -1.9418 C 1 RES   0.0000
485 H  -9.9054  37.6170  -2.5258 H 1 RES   0.0000
486 H -11.7055  37.5969  -2.4741 H 1 RES   0.0000
487 H -10.7984  36.1563  -1.9541 H 1 RES   0.0000
488 H   2.0656  31.9275  -0.4806 H 1 RES   0.0000
489 C  -0.0000  30.9887   0.0000 C 1 RES   0.0000
490 H   1.0125  30.9434   0.3042 H 1 RES   0.0000
491 H   0.3016  30.5183  -0.7372 H 1 RES   0.0000
492 O  -2.3164  31.5479  -0.5828 O 1 RES   0.0000
493 C   1.5206  35.0467   0.2418 C 1 RES   0.0000
494 C  -0.0000  35.2144   0.0000 C 1 RES   0.0000
495 H   1.6458  36.1389   0.1280 H 1 RES   0.0000
496 H   2.3759  35.1007  -0.3869 H 1 RES   0.0000
497 C  -0.8244  35.3076  -1.2725 C 1 RES   0.0000
498 O  -1.4175  36.4904  -1.6032 O 1 RES   0.0000
499 C  -2.5652  36.5186  -2.3803 C 1 RES   0.0000
500 C  -3.1281  37.9326  -2.5068 C 1 RES   0.0000
501 H  -3.3324  35.9007  -1.8624 H 1 RES   0.0000
502 H  -2.3810  36.0897  -3.3899 H 1 RES   0.0000
503 O  -4.4604  37.8502  -2.9671 O 1 RES   0.0000
504 H  -2.4519  38.5690  -3.1201 H 1 RES   0.0000
505 H  -3.1731  38.3922  -1.4969 H 1 RES   0.0000
506 P  -4.6520  38.5429  -4.5628 P 1 RES   0.0000
507 O  -3.9300  40.1192  -4.6645 O 1 RES   0.0000
508 O  -3.9510  37.5860  -5.5657 O 1 RES   0.0000
509 O  -6.3742  38.5871  -4.9112 O 1 RES   0.0000
510 C  -6.6273  38.7786  -6.2861 C 1 RES   0.0000
511 C  -6.7831  40.2832  -6.6008 C 1 RES   0.0000
512 H  -7.5783  38.2525  -6.4943 H 1 RES   0.0000
513 H  -5.8680  38.2891  -6.9300 H 1 RES   0.0000
514 N  -7.2075  40.6155  -7.9971 N 1 RES   0.0000
515 H  -5.8075  40.7702  -6.3805 H 1 RES   0.0000
516 H  -7.5252  40.7006  -5.8818 H 1 RES   0.0000
517 C  -7.2413  42.0928  -8.1251 C 1 RES   0.0000
518 H  -6.2378  42.5353  -7.9338 H 1 RES   0.0000
519 H  -7.9565  42.5432  -7.3990 H 1 RES   0.0000
520 H  -7.5566  42.4059  -9.1461 H 1 RES   0.0000
521 C  -8.5669  40.0984  -8.2885 C 1 RES   0.0000
522 H  -8.5949  38.9883  -8.2989 H 1 RES   0.0000
523 H  -8.9147  40.4295  -9.2934 H 1 RES   0.0000
524 H  -9.3033  40.4619  -7.5371 H 1 RES   0.0000
525 C  -6.2533  40.0839  -8.9993 C 1 RES   0.0000
526 H  -5.2182  40.4341  -8.7902 H 1 RES   0.0000
527 H  -6.5276  40.4141 -10.0265 H 1 RES   0.0000
528 H  -6.2538  38.9735  -9.0174 H 1 RES   0.0000
529 H   1.8005  34.7446   1.1208 H 1 RES   0.0000
530 C  -0.0000  33.8058   0.0000 C 1 RES   0.0000
531 H   0.5008  33.7606   0.9311 H 1 RES   0.0000
532 H   0.7345  33.3355  -0.3080 H 1 RES   0.0000
533 O  -1.2259  34.3650  -2.0501 O 1 RES   0.0000
534 C   0.9042  37.8638   1.2462 C 1 RES   0.0000
535 C  -0.0000  38.0316  -0.0000 C 1 RES   0.0000
536 H   1.0733  38.9560   1.2543 H 1 RES   0.0000
537 H   1.9536  37.9179   1.4064 H 1 RES   0.0000
538 C   0.3168  38.1248  -1.4827 C 1 RES   0.0000
539 O   0.1314  39.3075  -2.1359 O 1 RES   0.0000
540 C  -0.1308  39.3358  -3.4970 C 1 RES   0.0000
541 C  -0.4394  40.7498  -3.9845 C 1 RES   0.0000
542 H  -1.0395  38.7179  -3.6733 H 1 RES   0.0000
543 H   0.7134  38.9069  -4.0807 H 1 RES   0.0000
544 O  -1.0559  40.6673  -5.2520 O 1 RES   0.0000
545 H   0.4725  41.3862  -3.9400 H 1 RES   0.0000
546 H  -1.1852  41.2093  -3.3022 H 1 RES   0.0000
547 P  -0.0631  41.3601  -6.5158 P 1 RES   0.0000
548 O   0.5194  42.9364  -6.0772 O 1 RES   0.0000
549 O   1.1418  40.4032  -6.7293 O 1 RES   0.0000
550 O  -1.0345  41.4042  -7.9799 O 1 RES   0.0000
551 C  -0.2412  41.5957  -9.1312 C 1 RES   0.0000
552 C  -0.1289  43.1003  -9.4639 C 1 RES   0.0000
553 H  -0.7666  41.0697  -9.9508 H 1 RES   0.0000
554 H   0.7509  41.1062  -9.0496 H 1 RES   0.0000
555 N   0.5583  43.4327 -10.7513 N 1 RES   0.0000
556 H   0.4052  43.5874  -8.6182 H 1 RES   0.0000
557 H  -1.1621  43.5178  -9.4802 H 1 RES   0.0000
558 C   0.6249  44.9100 -10.8656 C 1 RES   0.0000
559 H   1.1992  45.3525 -10.0209 H 1 RES   0.0000
560 H  -0.3942  45.3603 -10.8580 H 1 RES   0.0000
561 H   1.1239  45.2230 -11.8106 H 1 RES   0.0000
562 C  -0.1969  42.9156 -11.9185 C 1 RES   0.0000
563 H  -0.2093  41.8054 -11.9458 H 1 RES   0.0000
564 H   0.2678  43.2467 -12.8751 H 1 RES   0.0000
565 H  -1.2488  43.2790 -11.9080 H 1 RES   0.0000
566 C   1.9418  42.9011 -10.7852 C 1 RES   0.0000
567 H   2.5258  43.2513  -9.9054 H 1 RES   0.0000
568 H   2.4741  43.2312 -11.7055 H 1 RES   0.0000
569 H   1.9541  41.7906 -10.7984 H 1 RES   0.0000
570 H   0.4806  37.5618   2.0656 H 1 RES   0.0000
571 C  -0.0000  36.6230   0.0000 C 1 RES   0.0000
572 H  -0.3042  36.5778   1.0125 H 1 RES   0.0000
573 H   0.7372  36.1526   0.3016 H 1 RES   0.0000
574 O   0.5828  37.1822  -2.3164 O 1 RES   0.0000
575 C  -0.2418  40.6810   1.5206 C 1 RES   0.0000
576 C  -0.0000  40.8487  -0.0000 C 1 RES   0.0000
577 H  -0.1280  41.7732   1.6458 H 1 RES   0.0000
578 H   0.3869  40.7350   2.3759 H 1 RES   0.0000
579 C   1.2725  40.9420  -0.8244 C 1 RES   0.0000
580 O   1.6032  42.1247  -1.4175 O 1 RES   0.0000
581 C   2.3803  42.1529  -2.5652 C 1 RES   0.0000
582 C   2.5068  43.5669  -3.1281 C 1 RES   0.0000
583 H   1.8624  41.5350  -3.3324 H 1 RES   0.0000
584 H   3.3899  41.7240  -2.3810 H 1 RES   0.0000
585 O   2.9671  43.4845  -4.4604 O 1 RES   0.0000
586 H   3.1201  44.2033  -2.4519 H 1 RES   0.0000
587 H   1.4969  44.0265  -3.1731 H 1 RES   0.0000
588 P   4.5628  44.1772  -4.6520 P 1 RES   0.0000
589 O   4.6645  45.7535  -3.9300 O 1 RES   0.0000
590 O   5.5657  43.2203  -3.9510 O 1 RES   0.0000
591 O   4.9112  44.2214  -6.3742 O 1 RES   0.0000
592 C   6.2861  44.4129  -6.6273 C 1 RES   0.0000
593 C   6.6008  45.9175  -6.7831 C 1 RES   0.0000
594 H   6.4943  43.8868  -7.5783 H 1 RES   0.0000
595 H   6.9300  43.9234  -5.8680 H 1 RES   0.0000
596 N   7.9971  46.2498  -7.2075 N 1 RES   0.0000
597 H   6.3805  46.4045  -5.8075 H 1 RES   0.0000
598 H   5.8818  46.3349  -7.5252 H 1 RES   0.0000
599 C   8.1251  47.7271  -7.2413 C 1 RES   0.0000
600 H   7.9338  48.1696  -6.2378 H 1 RES   0.0000
601 H   7.3990  48.1775  -7.9565 H 1 RES   0.0000
602 H   9.1461  48.0402  -7.5566 H 1 RES   0.0000
603 C   8.2885  45.7327  -8.5669 C 1 RES   0.0000
604 H   8.2989  44.6226  -8.5949 H 1 RES   0.0000
605 H   9.2934  46.0638  -8.9147 H 1 RES   0.0000
606 H   7.5371  46.0962  -9.3033 H 1 RES   0.0000
607 C   8.9993  45.7182  -6.2533 C 1 RES   0.0000
608 H   8.7902  46.0684  -5.2182 H 1 RES   0.0000
609 H  10.0265  46.0484  -6.5276 H 1 RES   0.0000
610 H   9.0174  44.6078  -6.2538 H 1 RES   0.0000
611 H  -1.1208  40.3789   1.8005 H 1 RES   0.0000
612 C  -0.0000  39.4401  -0.0000 C 1 RES   0.0000
613 H  -0.9311  39.3949   0.5008 H 1 RES   0.0000
614 H   0.3080  38.9698   0.7345 H 1 RES   0.0000
615 O   2.0501  39.9993  -1.2259 O 1 RES   0.0000
616 C  -1.2462  43.4981   0.9042 C 1 RES   0.0000
617 C  -0.0000  43.6659  -0.0000 C 1 RES   0.0000
618 H  -1.2543  44.5903   1.0733 H 1 RES   0.0000
619 H  -1.4064  43.5522   1.9536 H 1 RES   0.0000
620 C   1.4827  43.7591   0.3168 C 1 RES   0.0000
621 O   2.1359  44.9418   0.1314 O 1 RES   0.0000
622 C   3.4970  44.9701  -0.1308 C 1 RES   0.0000
623 C   3.9845  46.3841  -0.4394 C 1 RES   0.0000
624 H   3.6733  44.3522  -1.0395 H 1 RES   0.0000
625 H   4.0807  44.5412   0.7134 H 1 RES   0.0000
626 O   5.2520  46.3016  -1.0559 O 1 RES   0.0000
627 H   3.9400  47.0205   0.4725 H 1 RES   0.0000
628 H   3.3022  46.8436  -1.1852 H 1 RES   0.0000
629 P   6.5158  46.9944  -0.0631 P 1 RES   0.0000
630 O   6.0772  48.5707   0.5194 O 1 RES   0.0000
631 O   6.7293  46.0375   1.1418 O 1 RES   0.0000
632 O   7.9799  47.0385  -1.0345 O 1 RES   0.0000
633 C   9.1312  47.2300  -0.2412 C 1 RES   0.0000
634 C   9.4639  48.7346  -0.1289 C 1 RES   0.0000
635 H   9.9508  46.7040  -0.7666 H 1 RES   0.0000
636 H   9.0496  46.7405   0.7509 H 1 RES   0.0000
637 N  10.7513  49.0670   0.5583 N 1 RES   0.0000
638 H   8.6182  49.2217   0.4052 H 1 RES   0.0000
639 H   9.4802  49.1521  -1.1621 H 1 RES   0.0000
640 C  10.8656  50.5443   0.6249 C 1 RES   0.0000
641 H  10.0209  50.9868   1.1992 H 1 RES   0.0000
642 H  10.8580  50.9946  -0.3942 H 1 RES   0.0000
643 H  11.8106  50.8574   1.1239 H 1 RES   0.0000
644 C  11.9185  48.5499  -0.1969 C 1 RES   0.0000
645 H  11.9458  47.4397  -0.2093 H 1 RES   0.0000
646 H  12.8751  48.8810   0.2678 H 1 RES   0.0000
647 H  11.9080  48.9133  -1.2488 H 1 RES   0.0000
648 C  10.7852  48.5354   1.9418 C 1 RES   0.0000
649 H   9.9054  48.8856   2.5258 H 1 RES   0.0000
650 H  11.7055  48.8655   2.4741 H 1 RES   0.0000
651 H  10.7984  47.4249   1.9541 H 1 RES   0.0000
652 H  -2.0656  43.1961   0.4806 H 1 RES   0.0000
653 C  -0.0000  42.2573  -0.0000 C 1 RES   0.0000
654 H  -1.0125  42.2121  -0.3042 H 1 RES   0.0000
655 H  -0.3016  41.7869   0.7372 H 1 RES   0.0000
656 O   2.3164  42.8165   0.5828 O 1 RES   0.0000
657 C  -1.5206  46.3153  -0.2418 C 1 RES   0.0000
658 C  -0.0000  46.4830  -0.0000 C 1 RES   0.0000
659 H  -1.6458  47.4075  -0.1280 H 1 RES   0.0000
660 H  -2.3759  46.3693   0.3869 H 1 RES   0.0000
661 C   0.8244  46.5763   1.2725 C 1 RES   0.0000
662 O   1.4175  47.7590   1.6032 O 1 RES   0.0000
663 C   2.5652  47.7872   2.3803 C 1 RES   0.0000
664 C   3.1281  49.2012   2.5068 C 1 RES   0.0000
665 H   3.3324  47.1693   1.8624 H 1 RES   0.0000
666 H   2.3810  47.3583   3.3899 H 1 RES   0.0000
667 O   4.4604  49.1188   2.9671 O 1 RES   0.0000
668 H   2.4519  49.8376   3.1201 H 1 RES   0.0000
669 H   3.1731  49.6608   1.4969 H 1 RES   0.0000
670 P   4.6520  49.8116   4.5628 P 1 RES   0.0000
671 O   3.9300  51.3878   4.6645 O 1 RES   0.0000
672 O   3.9510  48.8546   5.5657 O 1 RES   0.0000
673 O   6.3742  49.8557   4.9112 O 1 RES   0.0000
674 C   6.6273  50.0472   6.2861 C 1 RES   0.0000
675 C   6.7831  51.5518   6.6008 C 1 RES   0.0000
676 H   7.5783  49.5212   6.4943 H 1 RES   0.0000
677 H   5.8680  49.5577   6.9300 H 1 RES   0.0000
678 N   7.2075  51.8842   7.9971 N 1 RES   0.0000
679 H   5.8075  52.0388   6.3805 H 1 RES   0.0000
680 H   7.5252  51.9693   5.8818 H 1 RES   0.0000
681 C   7.2413  53.3614   8.1251 C 1 RES   0.0000
682 H   6.2378  53.8040   7.9338 H 1 RES   0.0000
683 H   7.9565  53.8118   7.3990 H 1 RES   0.0000
684 H   7.5566  53.6745   9.1461 H 1 RES   0.0000
685 C   8.5669  51.3670   8.2885 C 1 RES   0.0000
686 H   8.5949  50.2569   8.2989 H 1 RES   0.0000
687 H   8.9147  51.6981   9.2934 H 1 RES   0.0000
688 H   9.3033  51.7305   7.5371 H 1 RES   0.0000
689 C   6.2533  51.3525   8.9993 C 1 RES   0.0000
690 H   5.2182  51.7027   8.7902 H 1 RES   0.0000
691 H   6.5276  51.6827  10.0265 H 1 RES   0.0000
692 H   6.2538  50.2421   9.0174 H 1 RES   0.0000
693 H  -1.8005  46.0132  -1.1208 H 1 RES   0.0000
694 C  -0.0000  45.0744  -0.0000 C 1 RES   0.0000
695 H  -0.5008  45.0292  -0.9311 H 1 RES   0.0000
696 H  -0.7345  44.6041   0.3080 H 1 RES   0.0000
697 O   1.2259  45.6336   2.0501 O 1 RES   0.0000
698 C  -0.9042  49.1324  -1.2462 C 1 RES   0.0000
699 C  -0.0000  49.3002  -0.0000 C 1 RES   0.0000
700 H  -1.0733  50.2246  -1.2543 H 1 RES   0.0000
701 H  -1.9536  49.1865  -1.4064 H 1 RES   0.0000
702 C  -0.3168  49.3934   1.4827 C 1 RES   0.0000
703 O  -0.1314  50.5761   2.1359 O 1 RES   0.0000
704 C   0.1308  50.6044   3.4970 C 1 RES   0.0000
705 C   0.4394  52.0184   3.9845 C 1 RES   0.0000
706 H   1.0395  49.9865   3.6733 H 1 RES   0.0000
707 H  -0.7134  50.1755   4.0807 H 1 RES   0.0000
708 O   1.0559  51.9360   5.2520 O 1 RES   0.0000
709 H  -0.4725  52.6548   3.9400 H 1 RES   0.0000
710 H   1.1852  52.4779   3.3022 H 1 RES   0.0000
711 P   0.0631  52.6287   6.5158 P 1 RES   0.0000
712 O  -0.5194  54.2050   6.0772 O 1 RES   0.0000
713 O  -1.1418  51.6718   6.7293 O 1 RES   0.0000
714 O   1.0345  52.6728   7.9799 O 1 RES   0.0000
715 C   0.2412  52.8643   9.1312 C 1 RES   0.0000
716 C   0.1289  54.3689   9.4639 C 1 RES   0.0000
717 H   0.7666  52.3383   9.9508 H 1 RES   0.0000
718 H  -0.7509  52.3748   9.0496 H 1 RES   0.0000
719 N  -0.5583  54.7013  10.7513 N 1 RES   0.0000
720 H  -0.4052  54.8560   8.6182 H 1 RES   0.0000
721 H   1.1621  54.7864   9.4802 H 1 RES   0.0000
722 C  -0.6249  56.1786  10.8656 C 1 RES   0.0000
723 H  -1.1992  56.6211  10.0209 H 1 RES   0.0000
724 H   0.3942  56.6289  10.8580 H 1 RES   0.0000
725 H  -1.1239  56.4917  11.8106 H 1 RES   0.0000
726 C   0.1969  54.1842  11.9185 C 1 RES   0.0000
727 H   0.2093  53.0740  11.9458 H 1 RES   0.0000
728 H  -0.2678  54.5153  12.8751 H 1 RES   0.0000
729 H   1.2488  54.5476  11.9080 H 1 RES   0.0000
730 C  -1.9418  54.1697  10.7852 C 1 RES   0.0000
731 H  -2.5258  54.5199   9.9054 H 1 RES   0.0000
732 H  -2.4741  54.4998  11.7055 H 1 RES   0.0000
733 H  -1.9541  53.0593  10.7984 H 1 RES   0.0000
734 H  -0.4806  48.8304  -2.0656 H 1 RES   0.0000
735 C  -0.0000  47.8916  -0.0000 C 1 RES   0.0000
736 H   0.3042  47.8464  -1.0125 H 1 RES   0.0000
737 H  -0.7372  47.4212  -0.3016 H 1 RES   0.0000
738 O  -0.5828  48.4508   2.3164 O 1 RES   0.0000
739 C   0.2418  51.9496  -1.5206 C 1 RES   0.0000
740 C  -0.0000  52.1173  -0.0000 C 1 RES   0.0000
741 H   0.1280  53.0418  -1.6458 H 1 RES   0.0000
742 H  -0.3869  52.0037  -2.3759 H 1 RES   0.0000
743 C  -1.2725  52.2106   0.8244 C 1 RES   0.0000
744 O  -1.6032  53.3933   1.4175 O 1 RES   0.0000
745 C  -2.3803  53.4216   2.5652 C 1 RES   0.0000
746 C  -2.5068  54.8355   3.1281 C 1 RES   0.0000
747 H  -1.8624  52.8036   3.3324 H 1 RES   0.0000
748 H  -3.3899  52.9926   2.3810 H 1 RES   0.0000
749 O  -2.9671  54.7531   4.4604 O 1 RES   0.0000
750 H  -3.1201  55.4719   2.4519 H 1 RES   0.0000
751 H  -1.4969  55.2951   3.1731 H 1 RES   0.0000
752 P  -4.5628  55.4459   4.6520 P 1 RES   0.0000
753 O  -4.6645  57.0221   3.9300 O 1 RES   0.0000
754 O  -5.5657  54.4889   3.9510 O 1 RES   0.0000
755 O  -4.9112  55.4900   6.3742 O 1 RES   0.0000
756 C  -6.2861  55.6815   6.6273 C 1 RES   0.0000
757 C  -6.6008  57.1861   6.7831 C 1 RES   0.0000
758 H  -6.4943  55.1555   7.5783 H 1 RES   0.0000
759 H  -6.9300  55.1920   5.8680 H 1 RES   0.0000
760 N  -7.9971  57.5185   7.2075 N 1 RES   0.0000
761 H  -6.3805  57.6732   5.8075 H 1 RES   0.0000
762 H  -5.8818  57.6036   7.5252 H 1 RES   0.0000
763 C  -8.1251  58.9957   7.2413 C 1 RES   0.0000
764 H  -7.9338  59.4383   6.2378 H 1 RES   0.0000
765 H  -7.3990  59.4461   7.9565 H 1 RES   0.0000
766 H  -9.1461  59.3088   7.5566 H 1 RES   0.0000
767 C  -8.2885  57.0013   8.5669 C 1 RES   0.0000
768 H  -8.2989  55.8912   8.5949 H 1 RES   0.0000
769 H  -9.2934  57.3324   8.9147 H 1 RES   0.0000
770 H  -7.5371  57.3648   9.3033 H 1 RES   0.0000
771 C  -8.9993  56.9869   6.2533 C 1 RES   0.0000
772 H  -8.7902  57.3370   5.2182 H 1 RES   0.0000
773 H -10.0265  57.3170   6.5276 H 1 RES   0.0000
774 H  -9.0174  55.8764   6.2538 H 1 RES   0.0000
775 H   1.1208  51.6476  -1.8005 H 1 RES   0.0000
776 C  -0.0000  50.7088  -0.0000 C 1 RES   0.0000
777 H   0.9311  50.6635  -0.5008 H 1 RES   0.0000
778 H  -0.3080  50.2384  -0.7345 H 1 RES   0.0000
779 O  -2.0501  51.2679   1.2259 O 1 RES   0.0000
780 C   1.2462  54.7668  -0.9042 C 1 RES   0.0000
781 C  -0.0000  54.9345  -0.0000 C 1 RES   0.0000
782 H   1.2543  55.8589  -1.0733 H 1 RES   0.0000
783 H   1.4064  54.8208  -1.9536 H 1 RES   0.0000
784 C  -1.4827  55.0277  -0.3168 C 1 RES   0.0000
785 O  -2.1359  56.2104  -0.1314 O 1 RES   0.0000
786 C  -3.4970  56.2387   0.1308 C 1 RES   0.0000
787 C  -3.9845  57.6527   0.4394 C 1 RES   0.0000
788 H  -3.6733  55.6208   1.0395 H 1 RES   0.0000
789 H  -4.0807  55.8098  -0.7134 H 1 RES   0.0000
790 O  -5.2520  57.5703   1.0559 O 1 RES   0.0000
791 H  -3.9400  58.2891  -0.4725 H 1 RES   0.0000
792 H  -3.3022  58.1122   1.1852 H 1 RES   0.0000
793 P  -6.5158  58.2630   0.0631 P 1 RES   0.0000
794 O  -6.0772  59.8393  -0.5194 O 1 RES   0.0000
795 O  -6.7293  57.3061  -1.1418 O 1 RES   0.0000
796 O  -7.9799  58.3071   1.0345 O 1 RES   0.0000
797 C  -9.1312  58.4986   0.2412 C 1 RES   0.0000
798 C  -9.4639  60.0032   0.1289 C 1 RES   0.0000
799 H  -9.9508  57.9726   0.7666 H 1 RES   0.0000
800 H  -9.0496  58.0091  -0.7509 H 1 RES   0.0000
801 N -10.7513  60.3356  -0.5583 N 1 RES   0.0000
802 H  -8.6182  60.4903  -0.4052 H 1 RES   0.0000
803 H  -9.4802  60.4207   1.1621 H 1 RES   0.0000
804 C -10.8656  61.8129  -0.6249 C 1 RES   0.0000
805 H -10.0209  62.2554  -1.1992 H 1 RES   0.0000
806 H -10.8580  62.2632   0.3942 H 1 RES   0.0000
807 H -11.8106  62.1260  -1.1239 H 1 RES   0.0000
808 C -11.9185  59.8185   0.1969 C 1 RES   0.0000
809 H -11.9458  58.7083   0.2093 H 1 RES   0.0000
810 H -12.8751  60.1496  -0.2678 H 1 RES   0.0000
811 H -11.9080  60.1819   1.2488 H 1 RES   0.0000
812 C -10.7852  59.8040  -1.9418 C 1 RES   0.0000
813 H  -9.9054  60.1542  -2.5258 H 1 RES   0.0000
814 H -11.7055  60.1341  -2.4741 H 1 RES   0.0000
815 H -10.7984  58.6936  -1.9541 H 1 RES   0.0000
816 H   2.0656  54.4647  -0.4806 H 1 RES   0.0000
817 C  -0.0000  53.5259  -0.0000 C 1 RES   0.0000
818 H   1.0125  53.4807   0.3042 H 1 RES   0.0000
819 H   0.3016  53.0555  -0.7372 H 1 RES   0.0000
820 O  -2.3164  54.0851  -0.5828 O 1 RES   0.0000
821 C   1.5206  57.5839   0.2418 C 1 RES   0.0000
822 C  -0.0000  57.7516  -0.0000 C 1 RES   0.0000
823 H   1.6458  58.6761   0.1280 H 1 RES   0.0000
824 H   2.3759  57.6380  -0.3869 H 1 RES   0.0000
825 C  -0.8244  57.8449  -1.2725 C 1 RES   0.0000
826 O  -1.4175  59.0276  -1.6032 O 1 RES   0.0000
827 C  -2.5652  59.0559  -2.3803 C 1 RES   0.0000
828 C  -3.1281  60.4698  -2.5068 C 1 RES   0.0000
829 H  -3.3324  58.4380  -1.8624 H 1 RES   0.0000
830 H  -2.3810  58.6269  -3.3899 H 1 RES   0.0000
831 O  -4.4604  60.3874  -2.9671 O 1 RES   0.0000
832 H  -2.4519  61.1062  -3.1201 H 1 RES   0.0000
833 H  -3.1731  60.9294  -1.4969 H 1 RES   0.0000
834 P  -4.6520  61.0802  -4.5628 P 1 RES   0.0000
835 O  -3.9300  62.6564  -4.6645 O 1 RES   0.0000
836 O  -3.9510  60.1233  -5.5657 O 1 RES   0.0000
837 O  -6.3742  61.1243  -4.9112 O 1 RES   0.0000
838 C  -6.6273  61.3158  -6.2861 C 1 RES   0.0000
839 C  -6.7831  62.8204  -6.6008 C 1 RES   0.0000
840 H  -7.5783  60.7898  -6.4943 H 1 RES   0.0000
841 H  -5.8680  60.8263  -6.9300 H 1 RES   0.0000
842 N  -7.2075  63.1528  -7.9971 N 1 RES   0.0000
843 H  -5.8075  63.3075  -6.3805 H 1 RES   0.0000
844 H  -7.5252  63.2379  -5.8818 H 1 RES   0.0000
845 C  -7.2413  64.6300  -8.1251 C 1 RES   0.0000
846 H  -6.2378  65.0726  -7.9338 H 1 RES   0.0000
847 H  -7.9565  65.0804  -7.3990 H 1 RES   0.0000
848 H  -7.5566  64.9431  -9.1461 H 1 RES   0.0000
849 C  -8.5669  62.6356  -8.2885 C 1 RES   0.0000
850 H  -8.5949  61.5255  -8.2989 H 1 RES   0.0000
851 H  -8.9147  62.9667  -9.2934 H 1 RES   0.0000
852 H  -9.3033  62.9991  -7.5371 H 1 RES   0.0000
853 C  -6.2533  62.6212  -8.9993 C 1 RES   0.0000
854 H  -5.2182  62.9713  -8.7902 H 1 RES   0.0000
855 H  -6.5276  62.9513 -10.0265 H 1 RES   0.0000
856 H  -6.2538  61.5107  -9.0174 H 1 RES   0.0000
857 H   1.8005  57.2819   1.1208 H 1 RES   0.0000
858 C  -0.0000  56.3431  -0.0000 C 1 RES   0.0000
859 H   0.5008  56.2978   0.9311 H 1 RES   0.0000
860 H   0.7345  55.8727  -0.3080 H 1 RES   0.0000
861 O  -1.2259  56.9022  -2.0501 O 1 RES   0.0000
862 C   0.9042  60.4011   1.2462 C 1 RES   0.0000
863 C  -0.0000  60.5688  -0.0000 C 1 RES   0.0000
864 H   1.0733  61.4932   1.2543 H 1 RES   0.0000
865 H   1.9536  60.4551   1.4064 H 1 RES   0.0000
866 C   0.3168  60.6620  -1.4827 C 1 RES   0.0000
867 O   0.1314  61.8447  -2.1359 O 1 RES   0.0000
868 C  -0.1308  61.8730  -3.4970 C 1 RES   0.0000
869 C  -0.4394  63.2870  -3.9845 C 1 RES   0.0000
870 H  -1.0395  61.2551  -3.6733 H 1 RES   0.0000
871 H   0.7134  61.4441  -4.0807 H 1 RES   0.0000
872 O  -1.0559  63.2046  -5.2520 O 1 RES   0.0000
873 H   0.4725  63.9234  -3.9400 H 1 RES   0.0000
874 H  -1.1852  63.7465  -3.3022 H 1 RES   0.0000
875 P  -0.0631  63.8973  -6.5158 P 1 RES   0.0000
876 O   0.5194  65.4736  -6.0772 O 1 RES   0.0000
877 O   1.1418  62.9404  -6.7293 O 1 RES   0.0000
878 O  -1.0345  63.9414  -7.9799 O 1 RES   0.0000
879 C  -0.2412  64.1329  -9.1312 C 1 RES   0.0000
880 C  -0.1289  65.6375  -9.4639 C 1 RES   0.0000
881 H  -0.7666  63.6069  -9.9508 H 1 RES   0.0000
882 H   0.7509  63.6434  -9.0496 H 1 RES   0.0000
883 N   0.5583  65.9699 -10.7513 N 1 RES   0.0000
884 H   0.4052  66.1246  -8.6182 H 1 RES   0.0000
885 H  -1.1621  66.0550  -9.4802 H 1 RES   0.0000
886 C   0.6249  67.4472 -10.8656 C 1 RES   0.0000
887 H   1.1992  67.8897 -10.0209 H 1 RES   0.0000
888 H  -0.3942  67.8975 -10.8580 H 1 RES   0.0000
889 H   1.1239  67.7603 -11.8106 H 1 RES   0.0000
890 C  -0.1969  65.4528 -11.9185 C 1 RES   0.0000
891 H  -0.2093  64.3426 -11.9458 H 1 RES   0.0000
892 H   0.2678  65.7839 -12.8751 H 1 RES   0.0000
893 H  -1.2488  65.8162 -11.9080 H 1 RES   0.0000
894 C   1.9418  65.4383 -10.7852 C 1 RES   0.0000
895 H   2.5258  65.7885  -9.9054 H 1 RES   0.0000
896 H   2.4741  65.7684 -11.7055 H 1 RES   0.0000
897 H   1.9541  64.3279 -10.7984 H 1 RES   0.0000
898 H   0.4806  60.0990   2.0656 H 1 RES   0.0000
899 C  -0.0000  59.1602  -0.0000 C 1 RES   0.0000
900 H  -0.3042  59.1150   1.0125 H 1 RES   0.0000
901 H   0.7372  58.6898   0.3016 H 1 RES   0.0000
902 O   0.5828  59.7194  -2.3164 O 1 RES   0.0000
903 C  -0.2418  63.2182   1.5206 C 1 RES   0.0000
904 C  -0.0000  63.3859  -0.0000 C 1 RES   0.0000
905 H  -0.1280  64.3104   1.6458 H 1 RES   0.0000
906 H   0.3869  63.2723   2.3759 H 1 RES   0.0000
907 C   1.2725  63.4792  -0.8244 C 1 RES   0.0000
908 O   1.6032  64.6619  -1.4175 O 1 RES   0.0000
909 C   2.3803  64.6902  -2.5652 C 1 RES   0.0000
910 C   2.5068  66.1041  -3.1281 C 1 RES   0.0000
911 H   1.8624  64.0723  -3.3324 H 1 RES   0.0000
912 H   3.3899  64.2613  -2.3810 H 1 RES   0.0000
913 O   2.9671  66.0217  -4.4604 O 1 RES   0.0000
914 H   3.1201  66.7405  -2.4519 H 1 RES   0.0000
915 H   1.4969  66.5637  -3.1731 H 1 RES   0.0000
916 P   4.5628  66.7145  -4.6520 P 1 RES   0.0000
917 O   4.6645  68.2907  -3.9300 O 1 RES   0.0000
918 O   5.5657  65.7576  -3.9510 O 1 RES   0.0000
919 O   4.9112  66.7586  -6.3742 O 1 RES   0.0000
920 C   6.2861  66.9501  -6.6273 C 1 RES   0.0000
921 C   6.6008  68.4547  -6.7831 C 1 RES   0.0000
922 H   6.4943  66.4241  -7.5783 H 1 RES   0.0000
923 H   6.9300  66.4606  -5.8680 H 1 RES   0.0000
924 N   7.9971  68.7871  -7.2075 N 1 RES   0.0000
925 H   6.3805  68.9418  -5.8075 H 1 RES   0.0000
926 H   5.8818  68.8722  -7.5252 H 1 RES   0.0000
927 C   8.1251  70.2643  -7.2413 C 1 RES   0.0000
928 H   7.9338  70.7069  -6.2378 H 1 RES   0.0000
929 H   7.3990  70.7147  -7.9565 H 1 RES   0.0000
930 H   9.1461  70.5774  -7.5566 H 1 RES   0.0000
931 C   8.2885  68.2699  -8.5669 C 1 RES   0.0000
932 H   8.2989  67.1598  -8.5949 H 1 RES   0.0000
933 H   9.2934  68.6011  -8.9147 H 1 RES   0.0000
934 H   7.5371  68.6334  -9.3033 H 1 RES   0.0000
935 C   8.9993  68.2555  -6.2533 C 1 RES   0.0000
936 H   8.7902  68.6057  -5.2182 H 1 RES   0.0000
937 H  10.0265  68.5856  -6.5276 H 1 RES   0.0000
938 H   9.0174  67.1450  -6.2538 H 1 RES   0.0000
939 H  -1.1208  62.9162   1.8005 H 1 RES   0.0000
940 C  -0.0000  61.9774  -0.0000 C 1 RES   0.0000
941 H  -0.9311  61.9321   0.5008 H 1 RES   0.0000
942 H   0.3080  61.5070   0.7345 H 1 RES   0.0000
943 O   2.0501  62.5365  -1.2259 O 1 RES   0.0000
944 C  -1.2462  66.0354   0.9042 C 1 RES   0.0000
945 C  -0.0000  66.2031  -0.0000 C 1 RES   0.0000
946 H  -1.2543  67.1275   1.0733 H 1 RES   0.0000
947 H  -1.4064  66.0894   1.9536 H 1 RES   0.0000
948 C   1.4827  66.2963   0.3168 C 1 RES   0.0000
949 O   2.1359  67.4790   0.1314 O 1 RES   0.0000
950 C   3.4970  67.5073  -0.1308 C 1 RES   0.0000
951 C   3.9845  68.9213  -0.4394 C 1 RES   0.0000
952 H   3.6733  66.8894  -1.0395 H 1 RES   0.0000
953 H   4.0807  67.0784   0.7134 H 1 RES   0.0000
954 O   5.2520  68.8389  -1.0559 O 1 RES   0.0000
955 H   3.9400  69.5577   0.4725 H 1 RES   0.0000
956 H   3.3022  69.3808  -1.1852 H 1 RES   0.0000
957 P   6.5158  69.5316  -0.0631 P 1 RES   0.0000
958 O   6.0772  71.1079   0.5194 O 1 RES   0.0000
959 O   6.7293  68.5747   1.1418 O 1 RES   0.0000
960 O   7.9799  69.5757  -1.0345 O 1 RES   0.0000
961 C   9.1312  69.7672  -0.2412 C 1 RES   0.0000
962 C   9.4639  71.2719  -0.1289 C 1 RES   0.0000
963 H   9.9508  69.2412  -0.7666 H 1 RES   0.0000
964 H   9.0496  69.2778   0.7509 H 1 RES   0.0000
965 N  10.7513  71.6042   0.5583 N 1 RES   0.0000
966 H   8.6182  71.7589   0.4052 H 1 RES   0.0000
967 H   9.4802  71.6893  -1.1621 H 1 RES   0.0000
968 C  10.8656  73.0815   0.6249 C 1 RES   0.0000
969 H  10.0209  73.5240   1.1992 H 1 RES   0.0000
970 H  10.8580  73.5318  -0.3942 H 1 RES   0.0000
971 H  11.8106  73.3946   1.1239 H 1 RES   0.0000
972 C  11.9185  71.0871  -0.1969 C 1 RES   0.0000
973 H  11.9458  69.9769  -0.2093 H 1 RES   0.0000
974 H  12.8751  71.4182   0.2678 H 1 RES   0.0000
975 H  11.9080  71.4505  -1.2488 H 1 RES   0.0000
976 C  10.7852  71.0726   1.9418 C 1 RES   0.0000
977 H   9.9054  71.4228   2.5258 H 1 RES   0.0000
978 H  11.7055  71.4028   2.4741 H 1 RES   0.0000
979 H  10.7984  69.9622   1.9541 H 1 RES   0.0000
980 H  -2.0656  65.7333   0.4806 H 1 RES   0.0000
981 C  -0.0000  64.7945  -0.0000 C 1 RES   0.0000
982 H  -1.0125  64.7493  -0.3042 H 1 RES   0.0000
983 H  -0.3016  64.3242   0.7372 H 1 RES   0.0000
984 O   2.3164  65.3537   0.5828 O 1 RES   0.0000
985 C  -1.5206  68.8525  -0.2418 C 1 RES   0.0000
986 C  -0.0000  69.0202  -0.0000 C 1 RES   0.0000
987 H  -1.6458  69.9447  -0.1280 H 1 RES   0.0000
988 H  -2.3759  68.9066   0.3869 H 1 RES   0.0000
989 C   0.8244  69.1135   1.2725 C 1 RES   0.0000
990 O   1.4175  70.2962   1.6032 O 1 RES   0.0000
991 C   2.5652  70.3245   2.3803 C 1 RES   0.0000
992 C   3.1281  71.7384   2.5068 C 1 RES   0.0000
993 H   3.3324  69.7066   1.8624 H 1 RES   0.0000
994 H   2.3810  69.8956   3.3899 H 1 RES   0.0000
995 O   4.4604  71.6560   2.9671 O 1 RES   0.0000
996 H   2.4519  72.3749   3.1201 H 1 RES   0.0000
997 H   3.1731  72.1980   1.4969 H 1 RES   0.0000
998 P   4.6520  72.3488   4.5628 P 1 RES   0.0000
999 O   3.9300  73.9250   4.6645 O 1 RES   0.0000
1000 O   3.9510  71.3919   5.5657 O 1 RES   0.0000
1001 O   6.3742  72.3929   4.9112 O 1 RES   0.0000
1002 C   6.6273  72.5844   6.2861 C 1 RES   0.0000
1003 C   6.7831  74.0890   6.6008 C 1 RES   0.0000
1004 H   7.5783  72.0584   6.4943 H 1 RES   0.0000
1005 H   5.8680  72.0949   6.9300 H 1 RES   0.0000
1006 N   7.2075  74.4214   7.9971 N 1 RES   0.0000
1007 H   5.8075  74.5761   6.3805 H 1 RES   0.0000
1008 H   7.5252  74.5065   5.8818 H 1 RES   0.0000
1009 C   7.2413  75.8987   8.1251 C 1 RES   0.0000
1010 H   6.2378  76.3412   7.9338 H 1 RES   0.0000
1011 H   7.9565  76.3490   7.3990 H 1 RES   0.0000
1012 H   7.5566  76.2117   9.1461 H 1 RES   0.0000
1013 C   8.5669  73.9042   8.2885 C 1 RES   0.0000
1014 H   8.5949  72.7941   8.2989 H 1 RES   0.0000
1015 H   8.9147  74.2354   9.2934 H 1 RES   0.0000
1016 H   9.3033  74.2677   7.5371 H 1 RES   0.0000
1017 C   6.2533  73.8898   8.9993 C 1 RES   0.0000
1018 H   5.2182  74.2400   8.7902 H 1 RES   0.0000
1019 H   6.5276  74.2199  10.0265 H 1 RES   0.0000
1020 H   6.2538  72.7793   9.0174 H 1 RES   0.0000
1021 H  -1.8005  68.5505  -1.1208 H 1 RES   0.0000
1022 C  -0.0000  67.6117  -0.0000 C 1 RES   0.0000
1023 H  -0.5008  67.5664  -0.9311 H 1 RES   0.0000
1024 H  -0.7345  67.1413   0.3080 H 1 RES   0.0000
1025 O   1.2259  68.1709   2.0501 O 1 RES   0.0000
1026 C  -0.9042  71.6697  -1.2462 C 1 RES   0.0000
1027 C  -0.0000  71.8374  -0.0000 C 1 RES   0.0000
1028 H  -1.0733  72.7618  -1.2543 H 1 RES   0.0000
1029 H  -1.9536  71.7237  -1.4064 H 1 RES   0.0000
1030 C  -0.3168  71.9306   1.4827 C 1 RES   0.0000
1031 O  -0.1314  73.1134   2.1359 O 1 RES   0.0000
1032 C   0.1308  73.1416   3.4970 C 1 RES   0.0000
1033 C   0.4394  74.5556   3.9845 C 1 RES   0.0000
1034 H   1.0395  72.5237   3.6733 H 1 RES   0.0000
1035 H  -0.7134  72.7127   4.0807 H 1 RES   0.0000
1036 O   1.0559  74.4732   5.2520 O 1 RES   0.0000
1037 H  -0.4725  75.1920   3.9400 H 1 RES   0.0000
1038 H   1.1852  75.0152   3.3022 H 1 RES   0.0000
1039 P   0.0631  75.1659   6.5158 P 1 RES   0.0000
1040 O  -0.5194  76.7422   6.0772 O 1 RES   0.0000
1041 O  -1.1418  74.2090   6.7293 O 1 RES   0.0000
1042 O   1.0345  75.2100   7.9799 O 1 RES   0.0000
1043 C   0.2412  75.4016   9.1312 C 1 RES   0.0000
1044 C   0.1289  76.9062   9.4639 C 1 RES   0.0000
1045 H   0.7666  74.8755   9.9508 H 1 RES   0.0000
1046 H  -0.7509  74.9121   9.0496 H 1 RES   0.0000
1047 N  -0.5583  77.2385  10.7513 N 1 RES   0.0000
1048 H  -0.4052  77.3932   8.6182 H 1 RES   0.0000
1049 H   1.1621  77.3236   9.4802 H 1 RES   0.0000
1050 C  -0.6249  78.7158  10.8656 C 1 RES   0.0000
1051 H  -1.1992  79.1583  10.0209 H 1 RES   0.0000
1052 H   0.3942  79.1662  10.8580 H 1 RES   0.0000
1053 H  -1.1239  79.0289  11.8106 H 1 RES   0.0000
1054 C   0.1969  76.7214  11.9185 C 1 RES   0.0000
1055 H   0.2093  75.6113  11.9458 H 1 RES   0.0000
1056 H  -0.2678  77.0525  12.8751 H 1 RES   0.0000
1057 H   1.2488  77.0849  11.9080 H 1 RES   0.0000
1058 C  -1.9418  76.7069  10.7852 C 1 RES   0.0000
1059 H  -2.5258  77.0571   9.9054 H 1 RES   0.0000
1060 H  -2.4741  77.0371  11.7055 H 1 RES   0.0000
1061 H  -1.9541  75.5965  10.7984 H 1 RES   0.0000
1062 H  -0.4806  71.3676  -2.0656 H 1 RES   0.0000
1063 C  -0.0000  70.4288  -0.0000 C 1 RES   0.0000
1064 H   0.3042  70.3836  -1.0125 H 1 RES   0.0000
1065 H  -0.7372  69.9585  -0.3016 H 1 RES   0.0000
1066 O  -0.5828  70.9880   2.3164 O 1 RES   0.0000
1067 C   0.2418  74.4868  -1.5206 C 1 RES   0.0000
1068 C  -0.0000  74.6546  -0.0000 C 1 RES   0.0000
1069 H   0.1280  75.5790  -1.6458 H 1 RES   0.0000
1070 H  -0.3869  74.5409  -2.3759 H 1 RES   0.0000
1071 C  -1.2725  74.7478   0.8244 C 1 RES   0.0000
1072 O  -1.6032  75.9305   1.4175 O 1 RES   0.0000
1073 C  -2.3803  75.9588   2.5652 C 1 RES   0.0000
1074 C  -2.5068  77.3728   3.1281 C 1 RES   0.0000
1075 H  -1.8624  75.3409   3.3324 H 1 RES   0.0000
1076 H  -3.3899  75.5299   2.3810 H 1 RES   0.0000
1077 O  -2.9671  77.2903   4.4604 O 1 RES   0.0000
1078 H  -3.1201  78.0092   2.4519 H 1 RES   0.0000
1079 H  -1.4969  77.8323   3.1731 H 1 RES   0.0000
1080 P  -4.5628  77.9831   4.6520 P 1 RES   0.0000
1081 O  -4.6645  79.5594   3.9300 O 1 RES   0.0000
1082 O  -5.5657  77.0262   3.9510 O 1 RES   0.0000
1083 O  -4.9112  78.0272   6.3742 O 1 RES   0.0000
1084 C  -6.2861  78.2187   6.6273 C 1 RES   0.0000
1085 C  -6.6008  79.7233   6.7831 C 1 RES   0.0000
1086 H  -6.4943  77.6927   7.5783 H 1 RES   0.0000
1087 H  -6.9300  77.7292   5.8680 H 1 RES   0.0000
1088 N  -7.9971  80.0557   7.2075 N 1 RES   0.0000
1089 H  -6.3805  80.2104   5.8075 H 1 RES   0.0000
1090 H  -5.8818  80.1408   7.5252 H 1 RES   0.0000
1091 C  -8.1251  81.5330   7.2413 C 1 RES   0.0000
1092 H  -7.9338  81.9755   6.2378 H 1 RES   0.0000
1093 H  -7.3990  81.9833   7.9565 H 1 RES   0.0000
1094 H  -9.1461  81.8460   7.5566 H 1 RES   0.0000
1095 C  -8.2885  79.5385   8.5669 C 1 RES   0.0000
1096 H  -8.2989  78.4284   8.5949 H 1 RES   0.0000
1097 H  -9.2934  79.8697   8.9147 H 1 RES   0.0000
1098 H  -7.5371  79.9020   9.3033 H 1 RES   0.0000
1099 C  -8.9993  79.5241   6.2533 C 1 RES   0.0000
1100 H  -8.7902  79.8743   5.2182 H 1 RES   0.0000
1101 H -10.0265  79.8542   6.5276 H 1 RES   0.0000
1102 H  -9.0174  78.4136   6.2538 H 1 RES   0.0000
1103 H   1.1208  74.1848  -1.8005 H 1 RES   0.0000
1104 C  -0.0000  73.2460  -0.0000 C 1 RES   0.0000
1105 H   0.9311  73.2007  -0.5008 H 1 RES   0.0000
1106 H  -0.3080  72.7756  -0.7345 H 1 RES   0.0000
1107 O  -2.0501  73.8052   1.2259 O 1 RES   0.0000
1108 C   1.2462  77.3040  -0.9042 C 1 RES   0.0000
1109 C  -0.0000  77.4717  -0.0000 C 1 RES   0.0000
1110 H   1.2543  78.3962  -1.0733 H 1 RES   0.0000
1111 H   1.4064  77.3580  -1.9536 H 1 RES   0.0000
1112 C  -1.4827  77.5649  -0.3168 C 1 RES   0.0000
1113 O  -2.1359  78.7477  -0.1314 O 1 RES   0.0000
1114 C  -3.4970  78.7759   0.1308 C 1 RES   0.0000
1115 C  -3.9845  80.1899   0.4394 C 1 RES   0.0000
1116 H  -3.6733  78.1580   1.0395 H 1 RES   0.0000
1117 H  -4.0807  78.3470  -0.7134 H 1 RES   0.0000
1118 O  -5.2520  80.1075   1.0559 O 1 RES   0.0000
1119 H  -3.9400  80.8263  -0.4725 H 1 RES   0.0000
1120 H  -3.3022  80.6495   1.1852 H 1 RES   0.0000
1121 P  -6.5158  80.8002   0.0631 P 1 RES   0.0000
1122 O  -6.0772  82.3765  -0.5194 O 1 RES   0.0000
1123 O  -6.7293  79.8433  -1.1418 O 1 RES   0.0000
1124 O  -7.9799  80.8444   1.0345 O 1 RES   0.0000
1125 C  -9.1312  81.0359   0.2412 C 1 RES   0.0000
1126 C  -9.4639  82.5405   0.1289 C 1 RES   0.0000
1127 H  -9.9508  80.5098   0.7666 H 1 RES   0.0000
1128 H  -9.0496  80.5464  -0.7509 H 1 RES   0.0000
1129 N -10.7513  82.8728  -0.5583 N 1 RES   0.0000
1130 H  -8.6182  83.0275  -0.4052 H 1 RES   0.0000
1131 H  -9.4802  82.9579   1.1621 H 1 RES   0.0000
1132 C -10.8656  84.3501  -0.6249 C 1 RES   0.0000
1133 H -10.0209  84.7926  -1.1992 H 1 RES   0.0000
1134 H -10.8580  84.8005   0.3942 H 1 RES   0.0000
1135 H -11.8106  84.6632  -1.1239 H 1 RES   0.0000
1136 C -11.9185  82.3557   0.1969 C 1 RES   0.0000
1137 H -11.9458  81.2456   0.2093 H 1 RES   0.0000
1138 H -12.8751  82.6868  -0.2678 H 1 RES   0.0000
1139 H -11.9080  82.7192   1.2488 H 1 RES   0.0000
1140 C -10.7852  82.3412  -1.9418 C 1 RES   0.0000
1141 H  -9.9054  82.6914  -2.5258 H 1 RES   0.0000
1142 H -11.7055  82.6714  -2.4741 H 1 RES   0.0000
1143 H -10.7984  81.2308  -1.9541 H 1 RES   0.0000
1144 H   2.0656  77.0019  -0.4806 H 1 RES   0.0000
1145 C  -0.0000  76.0631  -0.0000 C 1 RES   0.0000
1146 H   1.0125  76.0179   0.3042 H 1 RES   0.0000
1147 H   0.3016  75.5928  -0.7372 H 1 RES   0.0000
1148 O  -2.3164  76.6223  -0.5828 O 1 RES   0.0000
1149 C   1.5206  80.1211   0.2418 C 1 RES   0.0000
1150 C  -0.0000  80.2889  -0.0000 C 1 RES   0.0000
1151 H   1.6458  81.2133   0.1280 H 1 RES   0.0000
1152 H   2.3759  80.1752  -0.3869 H 1 RES   0.0000
1153 C  -0.8244  80.3821  -1.2725 C 1 RES   0.0000
1154 O  -1.4175  81.5648  -1.6032 O 1 RES   0.0000
1155 C  -2.5652  81.5931  -2.3803 C 1 RES   0.0000
1156 C  -3.1281  83.0071  -2.5068 C 1 RES   0.0000
1157 H  -3.3324  80.9752  -1.8624 H 1 RES   0.0000
1158 H  -2.3810  81.1642  -3.3899 H 1 RES   0.0000
1159 O  -4.4604  82.9246  -2.9671 O 1 RES   0.0000
1160 H  -2.4519  83.6435  -3.1201 H 1 RES   0.0000
1161 H  -3.1731  83.4666  -1.4969 H 1 RES   0.0000
1162 P  -4.6520  83.6174  -4.5628 P 1 RES   0.0000
1163 O  -3.9300  85.1937  -4.6645 O 1 RES   0.0000
1164 O  -3.9510  82.6605  -5.5657 O 1 RES   0.0000
1165 O  -6.3742  83.6615  -4.9112 O 1 RES   0.0000
1166 C  -6.6273  83.8530  -6.2861 C 1 RES   0.0000
1167 C  -6.7831  85.3576  -6.6008 C 1 RES   0.0000
1168 H  -7.5783  83.3270  -6.4943 H 1 RES   0.0000
1169 H  -5.8680  83.3635  -6.9300 H 1 RES   0.0000
1170 N  -7.2075  85.6900  -7.9971 N 1 RES   0.0000
1171 H  -5.8075  85.8447  -6.3805 H 1 RES   0.0000
1172 H  -7.5252  85.7751  -5.8818 H 1 RES   0.0000
1173 C  -7.2413  87.1673  -8.1251 C 1 RES   0.0000
1174 H  -6.2378  87.6098  -7.9338 H 1 RES   0.0000
1175 H  -7.9565  87.6176  -7.3990 H 1 RES   0.0000
1176 H  -7.5566  87.4803  -9.1461 H 1 RES   0.0000
1177 C  -8.5669  85.1728  -8.2885 C 1 RES   0.0000
1178 H  -8.5949  84.0627  -8.2989 H 1 RES   0.0000
1179 H  -8.9147  85.5040  -9.2934 H 1 RES   0.0000
1180 H  -9.3033  85.5363  -7.5371 H 1 RES   0.0000
1181 C  -6.2533  85.1584  -8.9993 C 1 RES   0.0000
1182 H  -5.2182  85.5086  -8.7902 H 1 RES   0.0000
1183 H  -6.5276  85.4885 -10.0265 H 1 RES   0.0000
1184 H  -6.2538  84.0479  -9.0174 H 1 RES   0.0000
1185 H   1.8005  79.8191   1.1208 H 1 RES   0.0000
1186 C  -0.0000  78.8803  -0.0000 C 1 RES   0.0000
1187 H   0.5008  78.8350   0.9311 H 1 RES   0.0000
1188 H   0.7345  78.4099  -0.3080 H 1 RES   0.0000
1189 O  -1.2259  79.4395  -2.0501 O 1 RES   0.0000
1190 C   0.9042  82.9383   1.2462 C 1 RES   0.0000
1191 C  -0.0000  83.1060  -0.0000 C 1 RES   0.0000
1192 H   1.0733  84.0305   1.2543 H 1 RES   0.0000
1193 H   1.9536  82.9923   1.4064 H 1 RES   0.0000
1194 C   0.3168  83.1992  -1.4827 C 1 RES   0.0000
1195 O   0.1314  84.3820  -2.1359 O 1 RES   0.0000
1196 C  -0.1308  84.4102  -3.4970 C 1 RES   0.0000
1197 C  -0.4394  85.8242  -3.9845 C 1 RES   0.0000
1198 H  -1.0395  83.7923  -3.6733 H 1 RES   0.0000
1199 H   0.7134  83.9813  -4.0807 H 1 RES   0.0000
1200 O  -1.0559  85.7418  -5.2520 O 1 RES   0.0000
1201 H   0.4725  86.4606  -3.9400 H 1 RES   0.0000
1202 H  -1.1852  86.2838  -3.3022 H 1 RES   0.0000
1203 P  -0.0631  86.4345  -6.5158 P 1 RES   0.0000
1204 O   0.5194  88.0108  -6.0772 O 1 RES   0.0000
1205 O   1.1418  85.4776  -6.7293 O 1 RES   0.0000
1206 O  -1.0345  86.4787  -7.9799 O 1 RES   0.0000
1207 C  -0.2412  86.6702  -9.1312 C 1 RES   0.0000
1208 C  -0.1289  88.1748  -9.4639 C 1 RES   0.0000
1209 H  -0.7666  86.1441  -9.9508 H 1 RES   0.0000
1210 H   0.7509  86.1807  -9.0496 H 1 RES   0.0000
1211 N   0.5583  88.5071 -10.7513 N 1 RES   0.0000
1212 H   0.4052  88.6618  -8.6182 H 1 RES   0.0000
1213 H  -1.1621  88.5922  -9.4802 H 1 RES   0.0000
1214 C   0.6249  89.9844 -10.8656 C 1 RES   0.0000
1215 H   1.1992  90.4269 -10.0209 H 1 RES   0.0000
1216 H  -0.3942  90.4348 -10.8580 H 1 RES   0.0000
1217 H   1.1239  90.2975 -11.8106 H 1 RES   0.0000
1218 C  -0.1969  87.9900 -11.9185 C 1 RES   0.0000
1219 H  -0.2093  86.8799 -11.9458 H 1 RES   0.0000
1220 H   0.2678  88.3211 -12.8751 H 1 RES   0.0000
1221 H  -1.2488  88.3535 -11.9080 H 1 RES   0.0000
1222 C   1.9418  87.9755 -10.7852 C 1 RES   0.0000
1223 H   2.5258  88.3257  -9.9054 H 1 RES   0.0000
1224 H   2.4741  88.3057 -11.7055 H 1 RES   0.0000
1225 H   1.9541  86.8651 -10.7984 H 1 RES   0.0000
1226 H   0.4806  82.6362   2.0656 H 1 RES   0.0000
1227 C  -0.0000  81.6974  -0.0000 C 1 RES   0.0000
1228 H  -0.3042  81.6522   1.0125 H 1 RES   0.0000
1229 H   0.7372  81.2271   0.3016 H 1 RES   0.0000
1230 O   0.5828  82.2566  -2.3164 O 1 RES   0.0000
1231 C  -0.2418  85.7554   1.5206 C 1 RES   0.0000
1232 C  -0.0000  85.9232  -0.0000 C 1 RES   0.0000
1233 H  -0.1280  86.8476   1.6458 H 1 RES   0.0000
1234 H   0.3869  85.8095   2.3759 H 1 RES   0.0000
1235 C   1.2725  86.0164  -0.8244 C 1 RES   0.0000
1236 O   1.6032  87.1991  -1.4175 O 1 RES   0.0000
1237 C   2.3803  87.2274  -2.5652 C 1 RES   0.0000
1238 C   2.5068  88.6414  -3.1281 C 1 RES   0.0000
1239 H   1.8624  86.6095  -3.3324 H 1 RES   0.0000
1240 H   3.3899  86.7985  -2.3810 H 1 RES   0.0000
1241 O   2.9671  88.5589  -4.4604 O 1 RES   0.0000
1242 H   3.1201  89.2778  -2.4519 H 1 RES   0.0000
1243 H   1.4969  89.1009  -3.1731 H 1 RES   0.0000
1244 P   4.5628  89.2517  -4.6520 P 1 RES   0.0000
1245 O   4.6645  90.8280  -3.9300 O 1 RES   0.0000
1246 O   5.5657  88.2948  -3.9510 O 1 RES   0.0000
1247 O   4.9112  89.2958  -6.3742 O 1 RES   0.0000
1248 C   6.2861  89.4873  -6.6273 C 1 RES   0.0000
1249 C   6.6008  90.9919  -6.7831 C 1 RES   0.0000
1250 H   6.4943  88.9613  -7.5783 H 1 RES   0.0000
1251 H   6.9300  88.9978  -5.8680 H 1 RES   0.0000
1252 N   7.9971  91.3243  -7.2075 N 1 RES   0.0000
1253 H   6.3805  91.4790  -5.8075 H 1 RES   0.0000
1254 H   5.8818  91.4094  -7.5252 H 1 RES   0.0000
1255 C   8.1251  92.8016  -7.2413 C 1 RES   0.0000
1256 H   7.9338  93.2441  -6.2378 H 1 RES   0.0000
1257 H   7.3990  93.2519  -7.9565 H 1 RES   0.0000
1258 H   9.1461  93.1147  -7.5566 H 1 RES   0.0000
1259 C   8.2885  90.8072  -8.5669 C 1 RES   0.0000
1260 H   8.2989  89.6970  -8.5949 H 1 RES   0.0000
1261 H   9.2934  91.1383  -8.9147 H 1 RES   0.0000
1262 H   7.5371  91.1706  -9.3033 H 1 RES   0.0000
1263 C   8.9993  90.7927  -6.2533 C 1 RES   0.0000
1264 H   8.7902  91.1429  -5.2182 H 1 RES   0.0000
1265 H  10.0265  91.1228  -6.5276 H 1 RES   0.0000
1266 H   9.0174  89.6822  -6.2538 H 1 RES   0.0000
1267 H  -1.1208  85.4534   1.8005 H 1 RES   0.0000
1268 C  -0.0000  84.5146  -0.0000 C 1 RES   0.0000
1269 H  -0.9311  84.4694   0.5008 H 1 RES   0.0000
1270 H   0.3080  84.0442   0.7345 H 1 RES   0.0000
1271 O   2.0501  85.0738  -1.2259 O 1 RES   0.0000
1272 C  -1.2462  88.5726   0.9042 C 1 RES   0.0000
1273 C  -0.0000  88.7403  -0.0000 C 1 RES   0.0000
1274 H  -1.2543  89.6648   1.0733 H 1 RES   0.0000
1275 H  -1.4064  88.6266   1.9536 H 1 RES   0.0000
1276 C   1.4827  88.8336   0.3168 C 1 RES   0.0000
1277 O   2.1359  90.0163   0.1314 O 1 RES   0.0000
1278 C   3.4970  90.0445  -0.1308 C 1 RES   0.0000
1279 C   3.9845  91.4585  -0.4394 C 1 RES   0.0000
1280 H   3.6733  89.4266  -1.0395 H 1 RES   0.0000
1281 H   4.0807  89.6156   0.7134 H 1 RES   0.0000
1282 O   5.2520  91.3761  -1.0559 O 1 RES   0.0000
1283 H   3.9400  92.0949   0.4725 H 1 RES   0.0000
1284 H   3.3022  91.9181  -1.1852 H 1 RES   0.0000
1285 P   6.5158  92.0688  -0.0631 P 1 RES   0.0000
1286 O   6.0772  93.6451   0.5194 O 1 RES   0.0000
1287 O   6.7293  91.1119   1.1418 O 1 RES   0.0000
1288 O   7.9799  92.1130  -1.0345 O 1 RES   0.0000
1289 C   9.1312  92.3045  -0.2412 C 1 RES   0.0000
1290 C   9.4639  93.8091  -0.1289 C 1 RES   0.0000
1291 H   9.9508  91.7785  -0.7666 H 1 RES   0.0000
1292 H   9.0496  91.8150   0.7509 H 1 RES   0.0000
1293 N  10.7513  94.1415   0.5583 N 1 RES   0.0000
1294 H   8.6182  94.2962   0.4052 H 1 RES   0.0000
1295 H   9.4802  94.2265  -1.1621 H 1 RES   0.0000
1296 C  10.8656  95.6187   0.6249 C 1 RES   0.0000
1297 H  10.0209  96.0612   1.1992 H 1 RES   0.0000
1298 H  10.8580  96.0691  -0.3942 H 1 RES   0.0000
1299 H  11.8106  95.9318   1.1239 H 1 RES   0.0000
1300 C  11.9185  93.6243  -0.1969 C 1 RES   0.0000
1301 H  11.9458  92.5142  -0.2093 H 1 RES   0.0000
1302 H  12.8751  93.9554   0.2678 H 1 RES   0.0000
1303 H  11.9080  93.9878  -1.2488 H 1 RES   0.0000
1304 C  10.7852  93.6098   1.9418 C 1 RES   0.0000
1305 H   9.9054  93.9600   2.5258 H 1 RES   0.0000
1306 H  11.7055  93.9400   2.4741 H 1 RES   0.0000
1307 H  10.7984  92.4994   1.9541 H 1 RES   0.0000
1308 H  -2.0656  88.2705   0.4806 H 1 RES   0.0000
1309 C  -0.0000  87.3318  -0.0000 C 1 RES   0.0000
1310 H  -1.0125  87.2865  -0.3042 H 1 RES   0.0000
1311 H  -0.3016  86.8614   0.7372 H 1 RES   0.0000
1312 O   2.3164  87.8909   0.5828 O 1 RES   0.0000
1313 C  -1.5206  91.3897  -0.2418 C 1 RES   0.0000
1314 C  -0.0000  91.5575   0.0000 C 1 RES   0.0000
1315 H  -1.6458  92.4819  -0.1280 H 1 RES   0.0000
1316 H  -2.3759  91.4438   0.3869 H 1 RES   0.0000
1317 C   0.8244  91.6507   1.2725 C 1 RES   0.0000
1318 O   1.4175  92.8334   1.6032 O 1 RES   0.0000
1319 C   2.5652  92.8617   2.3803 C 1 RES   0.0000
1320 C   3.1281  94.2757   2.5068 C 1 RES   0.0000
1321 H   3.3324  92.2438   1.8624 H 1 RES   0.0000
1322 H   2.3810  92.4328   3.3899 H 1 RES   0.0000
1323 O   4.4604  94.1933   2.9671 O 1 RES   0.0000
1324 H   2.4519  94.9121   3.1201 H 1 RES   0.0000
1325 H   3.1731  94.7352   1.4969 H 1 RES   0.0000
1326 P   4.6520  94.8860   4.5628 P 1 RES   0.0000
1327 O   3.9300  96.4623   4.6645 O 1 RES   0.0000
1328 O   3.9510  93.9291   5.5657 O 1 RES   0.0000
1329 O   6.3742  94.9301   4.9112 O 1 RES   0.0000
1330 C   6.6273  95.1216   6.2861 C 1 RES   0.0000
1331 C   6.7831  96.6262   6.6008 C 1 RES   0.0000
1332 H   7.5783  94.5956   6.4943 H 1 RES   0.0000
1333 H   5.8680  94.6321   6.9300 H 1 RES   0.0000
1334 N   7.2075  96.9586   7.9971 N 1 RES   0.0000
1335 H   5.8075  97.1133   6.3805 H 1 RES   0.0000
1336 H   7.5252  97.0437   5.8818 H 1 RES   0.0000
1337 C   7.2413  98.4359   8.1251 C 1 RES   0.0000
1338 H   6.2378  98.8784   7.9338 H 1 RES   0.0000
1339 H   7.9565  98.8862   7.3990 H 1 RES   0.0000
1340 H   7.5566  98.7489   9.1461 H 1 RES   0.0000
1341 C   8.5669  96.4415   8.2885 C 1 RES   0.0000
1342 H   8.5949  95.3313   8.2989 H 1 RES   0.0000
1343 H   8.9147  96.7726   9.2934 H 1 RES   0.0000
1344 H   9.3033  96.8049   7.5371 H 1 RES   0.0000
1345 C   6.2533  96.4270   8.9993 C 1 RES   0.0000
1346 H   5.2182  96.7772   8.7902 H 1 RES   0.0000
1347 H   6.5276  96.7571  10.0265 H 1 RES   0.0000
1348 H   6.2538  95.3166   9.0174 H 1 RES   0.0000
1349 H  -1.8005  91.0877  -1.1208 H 1 RES   0.0000
1350 C  -0.0000  90.1489   0.0000 C 1 RES   0.0000
1351 H  -0.5008  90.1037  -0.9311 H 1 RES   0.0000
1352 H  -0.7345  89.6785   0.3080 H 1 RES   0.0000
1353 O   1.2259  90.7081   2.0501 O 1 RES   0.0000
1354 C  -0.9042  94.2069  -1.2462 C 1 RES   0.0000
1355 C  -0.0000  94.3746   0.0000 C 1 RES   0.0000
1356 H  -1.0733  95.2991  -1.2543 H 1 RES   0.0000
1357 H  -1.9536  94.2609  -1.4064 H 1 RES   0.0000
1358 C  -0.3168  94.4679   1.4827 C 1 RES   0.0000
1359 O  -0.1314  95.6506   2.1359 O 1 RES   0.0000
1360 C   0.1308  95.6788   3.4970 C 1 RES   0.0000
1361 C   0.4394  97.0928   3.9845 C 1 RES   0.0000
1362 H   1.0395  95.0609   3.6733 H 1 RES   0.0000
1363 H  -0.7134  95.2499   4.0807 H 1 RES   0.0000
1364 O   1.0559  97.0104   5.2520 O 1 RES   0.0000
1365 H  -0.4725  97.7292   3.9400 H 1 RES   0.0000
1366 H   1.1852  97.5524   3.3022 H 1 RES   0.0000
1367 P   0.0631  97.7032   6.5158 P 1 RES   0.0000
1368 O  -0.5194  99.2794   6.0772 O 1 RES   0.0000
1369 O  -1.1418  96.7462   6.7293 O 1 RES   0.0000
1370 O   1.0345  97.7473   7.9799 O 1 RES   0.0000
1371 C   0.2412  97.9388   9.1312 C 1 RES   0.0000
1372 C   0.1289  99.4434   9.4639 C 1 RES   0.0000
1373 H   0.7666  97.4128   9.9508 H 1 RES   0.0000
1374 H  -0.7509  97.4493   9.0496 H 1 RES   0.0000
1375 N  -0.5583  99.7758  10.7513 N 1 RES   0.0000
1376 H  -0.4052  99.9305   8.6182 H 1 RES   0.0000
1377 H   1.1621  99.8609   9.4802 H 1 RES   0.0000
1378 C  -0.6249 101.2530  10.8656 C 1 RES   0.0000
1379 H  -1.1992 101.6956  10.0209 H 1 RES   0.0000
1380 H   0.3942 101.7034  10.8580 H 1 RES   0.0000
1381 H  -1.1239 101.5661  11.8106 H 1 RES   0.0000
1382 C   0.1969  99.2586  11.9185 C 1 RES   0.0000
1383 H   0.2093  98.1485  11.9458 H 1 RES   0.0000
1384 H  -0.2678  99.5897  12.8751 H 1 RES   0.0000
1385 H   1.2488  99.6221  11.9080 H 1 RES   0.0000
1386 C  -1.9418  99.2442  10.7852 C 1 RES   0.0000
1387 H  -2.5258  99.5943   9.9054 H 1 RES   0.0000
1388 H  -2.4741  99.5743  11.7055 H 1 RES   0.0000
1389 H  -1.9541  98.1337  10.7984 H 1 RES   0.0000
1390 H  -0.4806  93.9048  -2.0656 H 1 RES   0.0000
1391 C  -0.0000  92.9660   0.0000 C 1 RES   0.0000
1392 H   0.3042  92.9208  -1.0125 H 1 RES   0.0000
1393 H  -0.7372  92.4957  -0.3016 H 1 RES   0.0000
1394 O  -0.5828  93.5252   2.3164 O 1 RES   0.0000
1395 C   0.2418  97.0240  -1.5206 C 1 RES   0.0000
1396 C  -0.0000  97.1918   0.0000 C 1 RES   0.0000
1397 H   0.1280  98.1162  -1.6458 H 1 RES   0.0000
1398 H  -0.3869  97.0781  -2.3759 H 1 RES   0.0000
1399 C  -1.2725  97.2850   0.8244 C 1 RES   0.0000
1400 O  -1.6032  98.4677   1.4175 O 1 RES   0.0000
1401 C  -2.3803  98.4960   2.5652 C 1 RES   0.0000
1402 C  -2.5068  99.9100   3.1281 C 1 RES   0.0000
1403 H  -1.8624  97.8781   3.3324 H 1 RES   0.0000
1404 H  -3.3899  98.0671   2.3810 H 1 RES   0.0000
1405 O  -2.9671  99.8276   4.4604 O 1 RES   0.0000
1406 H  -3.1201 100.5464   2.4519 H 1 RES   0.0000
1407 H  -1.4969 100.3695   3.1731 H 1 RES   0.0000
1408 P  -4.5628 100.5203   4.6520 P 1 RES   0.0000
1409 O  -4.6645 102.0966   3.9300 O 1 RES   0.0000
1410 O  -5.5657  99.5634   3.9510 O 1 RES   0.0000
1411 O  -4.9112 100.5644   6.3742 O 1 RES   0.0000
1412 C  -6.2861 100.7559   6.6273 C 1 RES   0.0000
1413 C  -6.6008 102.2605   6.7831 C 1 RES   0.0000
1414 H  -6.4943 100.2299   7.5783 H 1 RES   0.0000
1415 H  -6.9300 100.2664   5.8680 H 1 RES   0.0000
1416 N  -7.9971 102.5929   7.2075 N 1 RES   0.0000
1417 H  -6.3805 102.7476   5.8075 H 1 RES   0.0000
1418 H  -5.8818 102.6780   7.5252 H 1 RES   0.0000
1419 C  -8.1251 104.0702   7.2413 C 1 RES   0.0000
1420 H  -7.9338 104.5127   6.2378 H 1 RES   0.0000
1421 H  -7.3990 104.5205   7.9565 H 1 RES   0.0000
1422 H  -9.1461 104.3833   7.5566 H 1 RES   0.0000
1423 C  -8.2885 102.0758   8.5669 C 1 RES   0.0000
1424 H  -8.2989 100.9656   8.5949 H 1 RES   0.0000
1425 H  -9.2934 102.4069   8.9147 H 1 RES   0.0000
1426 H  -7.5371 102.4392   9.3033 H 1 RES   0.0000
1427 C  -8.9993 102.0613   6.2533 C 1 RES   0.0000
1428 H  -8.7902 102.4115   5.2182 H 1 RES   0.0000
1429 H -10.0265 102.3914   6.5276 H 1 RES   0.0000
1430 H  -9.0174 100.9509   6.2538 H 1 RES   0.0000
1431 H   1.1208  96.7220  -1.8005 H 1 RES   0.0000
1432 C  -0.0000  95.7832   0.0000 C 1 RES   0.0000
1433 H   0.9311  95.7380  -0.5008 H 1 RES   0.0000
1434 H  -0.3080  95.3128  -0.7345 H 1 RES   0.0000
1435 O  -2.0501  96.3424   1.2259 O 1 RES   0.0000
1436 C   1.2462  99.8412  -0.9042 C 1 RES   0.0000
1437 C  -0.0000 100.0089   0.0000 C 1 RES   0.0000
1438 H   1.2543 100.9334  -1.0733 H 1 RES   0.0000
1439 H   1.4064  99.8953  -1.9536 H 1 RES   0.0000
1440 C  -1.4827 100.1022  -0.3168 C 1 RES   0.0000
1441 O  -2.1359 101.2849  -0.1314 O 1 RES   0.0000
1442 C  -3.4970 101.3132   0.1308 C 1 RES   0.0000
1443 C  -3.9845 102.7271   0.4394 C 1 RES   0.0000
1444 H  -3.6733 100.6953   1.0395 H 1 RES   0.0000
1445 H  -4.0807 100.8842  -0.7134 H 1 RES   0.0000
1446 O  -5.2520 102.6447   1.0559 O 1 RES   0.0000
1447 H  -3.9400 103.3635  -0.4725 H 1 RES   0.0000
1448 H  -3.3022 103.1867   1.1852 H 1 RES   0.0000
1449 P  -6.5158 103.3375   0.0631 P 1 RES   0.0000
1450 O  -6.0772 104.9137  -0.5194 O 1 RES   0.0000
1451 O  -6.7293 102.3806  -1.1418 O 1 RES   0.0000
1452 O  -7.9799 103.3816   1.0345 O 1 RES   0.0000
1453 C  -9.1312 103.5731   0.2412 C 1 RES   0.0000
1454 C  -9.4639 105.0777   0.1289 C 1 RES   0.0000
1455 H  -9.9508 103.0471   0.7666 H 1 RES   0.0000
1456 H  -9.0496 103.0836  -0.7509 H 1 RES   0.0000
1457 N -10.7513 105.4101  -0.5583 N 1 RES   0.0000
1458 H  -8.6182 105.5648  -0.4052 H 1 RES   0.0000
1459 H  -9.4802 105.4952   1.1621 H 1 RES   0.0000
1460 C -10.8656 106.8873  -0.6249 C 1 RES   0.0000
1461 H -10.0209 107.3299  -1.1992 H 1 RES   0.0000
1462 H -10.8580 107.3377   0.3942 H 1 RES   0.0000
1463 H -11.8106 107.2004  -1.1239 H 1 RES   0.0000
1464 C -11.9185 104.8929   0.1969 C 1 RES   0.0000
1465 H -11.9458 103.7828   0.2093 H 1 RES   0.0000
1466 H -12.8751 105.2240  -0.2678 H 1 RES   0.0000
1467 H -11.9080 105.2564   1.2488 H 1 RES   0.0000
1468 C -10.7852 104.8785  -1.9418 C 1 RES   0.0000
1469 H  -9.9054 105.2287  -2.5258 H 1 RES   0.0000
1470 H -11.7055 105.2086  -2.4741 H 1 RES   0.0000
1471 H -10.7984 103.7680  -1.9541 H 1 RES   0.0000
1472 H   2.0656  99.5392  -0.4806 H 1 RES   0.0000
1473 C  -0.0000  98.6004   0.0000 C 1 RES   0.0000
1474 H   1.0125  98.5551   0.3042 H 1 RES   0.0000
1475 H   0.3016  98.1300  -0.7372 H 1 RES   0.0000
1476 O  -2.3164  99.1595  -0.5828 O 1 RES   0.0000
1477 C   1.5206 102.6584   0.2418 C 1 RES   0.0000
1478 C  -0.0000 102.8261   0.0000 C 1 RES   0.0000
1479 H   1.6458 103.7505   0.1280 H 1 RES   0.0000
1480 H   2.3759 102.7124  -0.3869 H 1 RES   0.0000
1481 C  -0.8244 102.9193  -1.2725 C 1 RES   0.0000
1482 O  -1.4175 104.1021  -1.6032 O 1 RES   0.0000
1483 C  -2.5652 104.1303  -2.3803 C 1 RES   0.0000
1484 C  -3.1281 105.5443  -2.5068 C 1 RES   0.0000
1485 H  -3.3324 103.5124  -1.8624 H 1 RES   0.0000
1486 H  -2.3810 103.7014  -3.3899 H 1 RES   0.0000
1487 O  -4.4604 105.4619  -2.9671 O 1 RES   0.0000
1488 H  -2.4519 106.1807  -3.1201 H 1 RES   0.0000
1489 H  -3.1731 106.0038  -1.4969 H 1 RES   0.0000
1490 P  -4.6520 106.1546  -4.5628 P 1 RES   0.0000
1491 O  -3.9300 107.7309  -4.6645 O 1 RES   0.0000
1492 O  -3.9510 105.1977  -5.5657 O 1 RES   0.0000
1493 O  -6.3742 106.1987  -4.9112 O 1 RES   0.0000
1494 C  -6.6273 106.3902  -6.2861 C 1 RES   0.0000
1495 C  -6.7831 107.8948  -6.6008 C 1 RES   0.0000
1496 H  -7.5783 105.8642  -6.4943 H 1 RES   0.0000
1497 H  -5.8680 105.9007  -6.9300 H 1 RES   0.0000
1498 N  -7.2075 108.2272  -7.9971 N 1 RES   0.0000
1499 H  -5.8075 108.3819  -6.3805 H 1 RES   0.0000
1500 H  -7.5252 108.3123  -5.8818 H 1 RES   0.0000
1501 C  -7.2413 109.7045  -8.1251 C 1 RES   0.0000
1502 H  -6.2378 110.1470  -7.9338 H 1 RES   0.0000
1503 H  -7.9565 110.1548  -7.3990 H 1 RES   0.0000
1504 H  -7.5566 110.0176  -9.1461 H 1 RES   0.0000
1505 C  -8.5669 107.7101  -8.2885 C 1 RES   0.0000
1506 H  -8.5949 106.5999  -8.2989 H 1 RES   0.0000
1507 H  -8.9147 108.0412  -9.2934 H 1 RES   0.0000
1508 H  -9.3033 108.0735  -7.5371 H 1 RES   0.0000
1509 C  -6.2533 107.6956  -8.9993 C 1 RES   0.0000
1510 H  -5.2182 108.0458  -8.7902 H 1 RES   0.0000
1511 H  -6.5276 108.0257 -10.0265 H 1 RES   0.0000
1512 H  -6.2538 106.5852  -9.0174 H 1 RES   0.0000
1513 H   1.8005 102.3563   1.1208 H 1 RES   0.0000
1514 C  -0.0000 101.4175   0.0000 C 1 RES   0.0000
1515 H   0.5008 101.3723   0.9311 H 1 RES   0.0000
1516 H   0.7345 100.9472  -0.3080 H 1 RES   0.0000
1517 O  -1.2259 101.9767  -2.0501 O 1 RES   0.0000
1518 C   0.9042 105.4755   1.2462 C 1 RES   0.0000
1519 C  -0.0000 105.6432   0.0000 C 1 RES   0.0000
1520 H   1.0733 106.5677   1.2543 H 1 RES   0.0000
1521 H   1.9536 105.5296   1.4064 H 1 RES   0.0000
1522 C   0.3168 105.7365  -1.4827 C 1 RES   0.0000
1523 O   0.1314 106.9192  -2.1359 O 1 RES   0.0000
1524 C  -0.1308 106.9475  -3.4970 C 1 RES   0.0000
1525 C  -0.4394 108.3614  -3.9845 C 1 RES   0.0000
1526 H  -1.0395 106.3296  -3.6733 H 1 RES   0.0000
1527 H   0.7134 106.5186  -4.0807 H 1 RES   0.0000
1528 O  -1.0559 108.2790  -5.2520 O 1 RES   0.0000
1529 H   0.4725 108.9978  -3.9400 H 1 RES   0.0000
1530 H  -1.1852 108.8210  -3.3022 H 1 RES   0.0000
1531 P  -0.0631 108.9718  -6.5158 P 1 RES   0.0000
1532 O   0.5194 110.5480  -6.0772 O 1 RES   0.0000
1533 O   1.1418 108.0149  -6.7293 O 1 RES   0.0000
1534 O  -1.0345 109.0159  -7.9799 O 1 RES   0.0000
1535 C  -0.2412 109.2074  -9.1312 C 1 RES   0.0000
1536 C  -0.1289 110.7120  -9.4639 C 1 RES   0.0000
1537 H  -0.7666 108.6814  -9.9508 H 1 RES   0.0000
1538 H   0.7509 108.7179  -9.0496 H 1 RES   0.0000
1539 N   0.5583 111.0444 -10.7513 N 1 RES   0.0000
1540 H   0.4052 111.1991  -8.6182 H 1 RES   0.0000
1541 H  -1.1621 111.1295  -9.4802 H 1 RES   0.0000
1542 C   0.6249 112.5216 -10.8656 C 1 RES   0.0000
1543 H   1.1992 112.9642 -10.0209 H 1 RES   0.0000
1544 H  -0.3942 112.9720 -10.8580 H 1 RES   0.0000
1545 H   1.1239 112.8347 -11.8106 H 1 RES   0.0000
1546 C  -0.1969 110.5272 -11.9185 C 1 RES   0.0000
1547 H  -0.2093 109.4171 -11.9458 H 1 RES   0.0000
1548 H   0.2678 110.8584 -12.8751 H 1 RES   0.0000
1549 H  -1.2488 110.8907 -11.9080 H 1 RES   0.0000
1550 C   1.9418 110.5128 -10.7852 C 1 RES   0.0000
1551 H   2.5258 110.8630  -9.9054 H 1 RES   0.0000
1552 H   2.4741 110.8429 -11.7055 H 1 RES   0.0000
1553 H   1.9541 109.4023 -10.7984 H 1 RES   0.0000
1554 H   0.4806 105.1735   2.0656 H 1 RES   0.0000
1555 C  -0.0000 104.2347   0.0000 C 1 RES   0.0000
1556 H  -0.3042 104.1894   1.0125 H 1 RES   0.0000
1557 H   0.7372 103.7643   0.3016 H 1 RES   0.0000
1558 O   0.5828 104.7939  -2.3164 O 1 RES   0.0000
1559 C  -0.2418 108.2927   1.5206 C 1 RES   0.0000
1560 C  -0.0000 108.4604   0.0000 C 1 RES   0.0000
1561 H  -0.1280 109.3848   1.6458 H 1 RES   0.0000
1562 H   0.3869 108.3467   2.3759 H 1 RES   0.0000
1563 C   1.2725 108.5536  -0.8244 C 1 RES   0.0000
1564 O   1.6032 109.7364  -1.4175 O 1 RES   0.0000
1565 C   2.3803 109.7646  -2.5652 C 1 RES   0.0000
1566 C   2.5068 111.1786  -3.1281 C 1 RES   0.0000
1567 H   1.8624 109.1467  -3.3324 H 1 RES   0.0000
1568 H   3.3899 109.3357  -2.3810 H 1 RES   0.0000
1569 O   2.9671 111.0962  -4.4604 O 1 RES   0.0000
1570 H   3.1201 111.8150  -2.4519 H 1 RES   0.0000
1571 H   1.4969 111.6381  -3.1731 H 1 RES   0.0000
1572 P   4.5628 111.7889  -4.6520 P 1 RES   0.0000
1573 O   4.6645 113.3652  -3.9300 O 1 RES   0.0000
1574 O   5.5657 110.8320  -3.9510 O 1 RES   0.0000
1575 O   4.9112 111.8330  -6.3742 O 1 RES   0.0000
1576 C   6.2861 112.0245  -6.6273 C 1 RES   0.0000
1577 C   6.6008 113.5291  -6.7831 C 1 RES   0.0000
1578 H   6.4943 111.4985  -7.5783 H 1 RES   0.0000
1579 H   6.9300 111.5350  -5.8680 H 1 RES   0.0000
1580 N   7.9971 113.8615  -7.2075 N 1 RES   0.0000
1581 H   6.3805 114.0162  -5.8075 H 1 RES   0.0000
1582 H   5.8818 113.9466  -7.5252 H 1 RES   0.0000
1583 C   8.1251 115.3388  -7.2413 C 1 RES   0.0000
1584 H   7.9338 115.7813  -6.2378 H 1 RES   0.0000
1585 H   7.3990 115.7891  -7.9565 H 1 RES   0.0000
1586 H   9.1461 115.6519  -7.5566 H 1 RES   0.0000
1587 C   8.2885 113.3444  -8.5669 C 1 RES   0.0000
1588 H   8.2989 112.2342  -8.5949 H 1 RES   0.0000
1589 H   9.2934 113.6755  -8.9147 H 1 RES   0.0000
1590 H   7.5371 113.7078  -9.3033 H 1 RES   0.0000
1591 C   8.9993 113.3299  -6.2533 C 1 RES   0.0000
1592 H   8.7902 113.6801  -5.2182 H 1 RES   0.0000
1593 H  10.0265 113.6600  -6.5276 H 1 RES   0.0000
1594 H   9.0174 112.2195  -6.2538 H 1 RES   0.0000
1595 H  -1.1208 107.9906   1.8005 H 1 RES   0.0000
1596 C  -0.0000 107.0518   0.0000 C 1 RES   0.0000
1597 H  -0.9311 107.0066   0.5008 H 1 RES   0.0000
1598 H   0.3080 106.5815   0.7345 H 1 RES   0.0000
1599 O   2.0501 107.6110  -1.2259 O 1 RES   0.0000
1600 C  -1.2462 111.1098   0.9042 C 1 RES   0.0000
1601 C  -0.0000 111.2775   0.0000 C 1 RES   0.0000
1602 H  -1.2543 112.2020   1.0733 H 1 RES   0.0000
1603 H  -1.4064 111.1639   1.9536 H 1 RES   0.0000
1604 C   1.4827 111.3708   0.3168 C 1 RES   0.0000
1605 O   2.1359 112.5535   0.1314 O 1 RES   0.0000
1606 C   3.4970 112.5818  -0.1308 C 1 RES   0.0000
1607 C   3.9845 113.9958  -0.4394 C 1 RES   0.0000
1608 H   3.6733 111.9639  -1.0395 H 1 RES   0.0000
1609 H   4.0807 112.1529   0.7134 H 1 RES   0.0000
1610 O   5.2520 113.9133  -1.0559 O 1 RES   0.0000
1611 H   3.9400 114.6321   0.4725 H 1 RES   0.0000
1612 H   3.3022 114.4553  -1.1852 H 1 RES   0.0000
1613 P   6.5158 114.6061  -0.0631 P 1 RES   0.0000
1614 O   6.0772 116.1823   0.5194 O 1 RES   0.0000
1615 O   6.7293 113.6492   1.1418 O 1 RES   0.0000
1616 O   7.9799 114.6502  -1.0345 O 1 RES   0.0000
1617 C   9.1312 114.8417  -0.2412 C 1 RES   0.0000
1618 C   9.4639 116.3463  -0.1289 C 1 RES   0.0000
1619 H   9.9508 114.3157  -0.7666 H 1 RES   0.0000
1620 H   9.0496 114.3522   0.7509 H 1 RES   0.0000
1621 N  10.7513 116.6787   0.5583 N 1 RES   0.0000
1622 H   8.6182 116.8334   0.4052 H 1 RES   0.0000
1623 H   9.4802 116.7638  -1.1621 H 1 RES   0.0000
1624 C  10.8656 118.1559   0.6249 C 1 RES   0.0000
1625 H  10.0209 118.5985   1.1992 H 1 RES   0.0000
1626 H  10.8580 118.6063  -0.3942 H 1 RES   0.0000
1627 H  11.8106 118.4690   1.1239 H 1 RES   0.0000
1628 C  11.9185 116.1615  -0.1969 C 1 RES   0.0000
1629 H  11.9458 115.0514  -0.2093 H 1 RES   0.0000
1630 H  12.8751 116.4927   0.2678 H 1 RES   0.0000
1631 H  11.9080 116.5250  -1.2488 H 1 RES   0.0000
1632 C  10.7852 116.1471   1.9418 C 1 RES   0.0000
1633 H   9.9054 116.4973   2.5258 H 1 RES   0.0000
1634 H  11.7055 116.4772   2.4741 H 1 RES   0.0000
1635 H  10.7984 115.0366   1.9541 H 1 RES   0.0000
1636 H  -2.0656 110.8078   0.4806 H 1 RES   0.0000
1637 C  -0.0000 109.8690   0.0000 C 1 RES   0.0000
1638 H  -1.0125 109.8237  -0.3042 H 1 RES   0.0000
1639 H  -0.3016 109.3986   0.7372 H 1 RES   0.0000
1640 O   2.3164 110.4282   0.5828 O 1 RES   0.0000
1641 C  -1.5206 113.9270  -0.2418 C 1 RES   0.0000
1642 C  -0.0000 114.0947   0.0000 C 1 RES   0.0000
1643 H  -1.6458 115.0191  -0.1280 H 1 RES   0.0000
1644 H  -2.3759 113.9810   0.3869 H 1 RES   0.0000
1645 C   0.8244 114.1879   1.2725 C 1 RES   0.0000
1646 O   1.4175 115.3707   1.6032 O 1 RES   0.0000
1647 C   2.5652 115.3989   2.3803 C 1 RES   0.0000
1648 C   3.1281 116.8129   2.5068 C 1 RES   0.0000
1649 H   3.3324 114.7810   1.8624 H 1 RES   0.0000
1650 H   2.3810 114.9700   3.3899 H 1 RES   0.0000
1651 O   4.4604 116.7305   2.9671 O 1 RES   0.0000
1652 H   2.4519 117.4493   3.1201 H 1 RES   0.0000
1653 H   3.1731 117.2725   1.4969 H 1 RES   0.0000
1654 P   4.6520 117.4232   4.5628 P 1 RES   0.0000
1655 O   3.9300 118.9995   4.6645 O 1 RES   0.0000
1656 O   3.9510 116.4663   5.5657 O 1 RES   0.0000
1657 O   6.3742 117.4673   4.9112 O 1 RES   0.0000
1658 C   6.6273 117.6588   6.2861 C 1 RES   0.0000
1659 C   6.7831 119.1635   6.6008 C 1 RES   0.0000
1660 H   7.5783 117.1328   6.4943 H 1 RES   0.0000
1661 H   5.8680 117.1694   6.9300 H 1 RES   0.0000
1662 N   7.2075 119.4958   7.9971 N 1 RES   0.0000
1663 H   5.8075 119.6505   6.3805 H 1 RES   0.0000
1664 H   7.5252 119.5809   5.8818 H 1 RES   0.0000
1665 C   7.2413 120.9731   8.1251 C 1 RES   0.0000
1666 H   6.2378 121.4156   7.9338 H 1 RES   0.0000
1667 H   7.9565 121.4234   7.3990 H 1 RES   0.0000
1668 H   7.5566 121.2862   9.1461 H 1 RES   0.0000
1669 C   8.5669 118.9787   8.2885 C 1 RES   0.0000
1670 H   8.5949 117.8685   8.2989 H 1 RES   0.0000
1671 H   8.9147 119.3098   9.2934 H 1 RES   0.0000
1672 H   9.3033 119.3422   7.5371 H 1 RES   0.0000
1673 C   6.2533 118.9642   8.9993 C 1 RES   0.0000
1674 H   5.2182 119.3144   8.7902 H 1 RES   0.0000
1675 H   6.5276 119.2944  10.0265 H 1 RES   0.0000
1676 H   6.2538 117.8538   9.0174 H 1 RES   0.0000
1677 H  -1.8005 113.6249  -1.1208 H 1 RES   0.0000
1678 C  -0.0000 112.6861   0.0000 C 1 RES   0.0000
1679 H  -0.5008 112.6409  -0.9311 H 1 RES   0.0000
1680 H  -0.7345 112.2158   0.3080 H 1 RES   0.0000
1681 O   1.2259 113.2453   2.0501 O 1 RES   0.0000
1682 C  -0.9042 116.7441  -1.2462 C 1 RES   0.0000
1683 C  -0.0000 116.9119   0.0000 C 1 RES   0.0000
1684 H  -1.0733 117.8363  -1.2543 H 1 RES   0.0000
1685 H  -1.9536 116.7982  -1.4064 H 1 RES   0.0000
1686 C  -0.3168 117.0051   1.4827 C 1 RES   0.0000
1687 O  -0.1314 118.1878   2.1359 O 1 RES   0.0000
1688 C   0.1308 118.2161   3.4970 C 1 RES   0.0000
1689 C   0.4394 119.6301   3.9845 C 1 RES   0.0000
1690 H   1.0395 117.5982   3.6733 H 1 RES   0.0000
1691 H  -0.7134 117.7872   4.0807 H 1 RES   0.0000
1692 O   1.0559 119.5476   5.2520 O 1 RES   0.0000
1693 H  -0.4725 120.2665   3.9400 H 1 RES   0.0000
1694 H   1.1852 120.0896   3.3022 H 1 RES   0.0000
1695 P   0.0631 120.2404   6.5158 P 1 RES   0.0000
1696 O  -0.5194 121.8167   6.0772 O 1 RES   0.0000
1697 O  -1.1418 119.2835   6.7293 O 1 RES   0.0000
1698 O   1.0345 120.2845   7.9799 O 1 RES   0.0000
1699 C   0.2412 120.4760   9.1312 C 1 RES   0.0000
1700 C   0.1289 121.9806   9.4639 C 1 RES   0.0000
1701 H   0.7666 119.9500   9.9508 H 1 RES   0.0000
1702 H  -0.7509 119.9865   9.0496 H 1 RES   0.0000
1703 N  -0.5583 122.3130  10.7513 N 1 RES   0.0000
1704 H  -0.4052 122.4677   8.6182 H 1 RES   0.0000
1705 H   1.1621 122.3981   9.4802 H 1 RES   0.0000
1706 C  -0.6249 123.7903  10.8656 C 1 RES   0.0000
1707 H  -1.1992 124.2328  10.0209 H 1 RES   0.0000
1708 H   0.3942 124.2406  10.8580 H 1 RES   0.0000
1709 H  -1.1239 124.1033  11.8106 H 1 RES   0.0000
1710 C   0.1969 121.7958  11.9185 C 1 RES   0.0000
1711 H   0.2093 120.6857  11.9458 H 1 RES   0.0000
1712 H  -0.2678 122.1270  12.8751 H 1 RES   0.0000
1713 H   1.2488 122.1593  11.9080 H 1 RES   0.0000
1714 C  -1.9418 121.7814  10.7852 C 1 RES   0.0000
1715 H  -2.5258 122.1316   9.9054 H 1 RES   0.0000
1716 H  -2.4741 122.1115  11.7055 H 1 RES   0.0000
1717 H  -1.9541 120.6709  10.7984 H 1 RES   0.0000
1718 H  -0.4806 116.4421  -2.0656 H 1 RES   0.0000
1719 C  -0.0000 115.5033   0.0000 C 1 RES   0.0000
1720 H   0.3042 115.4580  -1.0125 H 1 RES   0.0000
1721 H  -0.7372 115.0329  -0.3016 H 1 RES   0.0000
1722 O  -0.5828 116.0625   2.3164 O 1 RES   0.0000
1723 C   0.2418 119.5613  -1.5206 C 1 RES   0.0000
1724 C  -0.0000 119.7290   0.0000 C 1 RES   0.0000
1725 H   0.1280 120.6535  -1.6458 H 1 RES   0.0000
1726 H  -0.3869 119.6153  -2.3759 H 1 RES   0.0000
1727 C  -1.2725 119.8222   0.8244 C 1 RES   0.0000
1728 O  -1.6032 121.0050   1.4175 O 1 RES   0.0000
1729 C  -2.3803 121.0332   2.5652 C 1 RES   0.0000
1730 C  -2.5068 122.4472   3.1281 C 1 RES   0.0000
1731 H  -1.8624 120.4153   3.3324 H 1 RES   0.0000
1732 H  -3.3899 120.6043   2.3810 H 1 RES   0.0000
1733 O  -2.9671 122.3648   4.4604 O 1 RES   0.0000
1734 H  -3.1201 123.0836   2.4519 H 1 RES   0.0000
1735 H  -1.4969 122.9068   3.1731 H 1 RES   0.0000
1736 P  -4.5628 123.0575   4.6520 P 1 RES   0.0000
1737 O  -4.6645 124.6338   3.9300 O 1 RES   0.0000
1738 O  -5.5657 122.1006   3.9510 O 1 RES   0.0000
1739 O  -4.9112 123.1016   6.3742 O 1 RES   0.0000
1740 C  -6.2861 123.2932   6.6273 C 1 RES   0.0000
1741 C  -6.6008 124.7978   6.7831 C 1 RES   0.0000
1742 H  -6.4943 122.7671   7.5783 H 1 RES   0.0000
1743 H  -6.9300 122.8037   5.8680 H 1 RES   0.0000
1744 N  -7.9971 125.1301   7.2075 N 1 RES   0.0000
1745 H  -6.3805 125.2848   5.8075 H 1 RES   0.0000
1746 H  -5.8818 125.2152   7.5252 H 1 RES   0.0000
1747 C  -8.1251 126.6074   7.2413 C 1 RES   0.0000
1748 H  -7.9338 127.0499   6.2378 H 1 RES   0.0000
1749 H  -7.3990 127.0578   7.9565 H 1 RES   0.0000
1750 H  -9.1461 126.9205   7.5566 H 1 RES   0.0000
1751 C  -8.2885 124.6130   8.5669 C 1 RES   0.0000
1752 H  -8.2989 123.5029   8.5949 H 1 RES   0.0000
1753 H  -9.2934 124.9441   8.9147 H 1 RES   0.0000
1754 H  -7.5371 124.9765   9.3033 H 1 RES   0.0000
1755 C  -8.9993 124.5985   6.2533 C 1 RES   0.0000
1756 H  -8.7902 124.9487   5.2182 H 1 RES   0.0000
1757 H -10.0265 124.9287   6.5276 H 1 RES   0.0000
1758 H  -9.0174 123.4881   6.2538 H 1 RES   0.0000
1759 H   1.1208 119.2592  -1.8005 H 1 RES   0.0000
1760 C  -0.0000 118.3204   0.0000 C 1 RES   0.0000
1761 H   0.9311 118.2752  -0.5008 H 1 RES   0.0000
1762 H  -0.3080 117.8501  -0.7345 H 1 RES   0.0000
1763 O  -2.0501 118.8796   1.2259 O 1 RES   0.0000
1764 C   1.2462 122.3784  -0.9042 C 1 RES   0.0000
1765 C  -0.0000 122.5462   0.0000 C 1 RES   0.0000
1766 H   1.2543 123.4706  -1.0733 H 1 RES   0.0000
1767 H   1.4064 122.4325  -1.9536 H 1 RES   0.0000
1768 C  -1.4827 122.6394  -0.3168 C 1 RES   0.0000
1769 O  -2.1359 123.8221  -0.1314 O 1 RES   0.0000
1770 C  -3.4970 123.8504   0.1308 C 1 RES   0.0000
1771 C  -3.9845 125.2644   0.4394 C 1 RES   0.0000
1772 H  -3.6733 123.2325   1.0395 H 1 RES   0.0000
1773 H  -4.0807 123.4215  -0.7134 H 1 RES   0.0000
1774 O  -5.2520 125.1819   1.0559 O 1 RES   0.0000
1775 H  -3.9400 125.9008  -0.4725 H 1 RES   0.0000
1776 H  -3.3022 125.7239   1.1852 H 1 RES   0.0000
1777 P  -6.5158 125.8747   0.0631 P 1 RES   0.0000
1778 O  -6.0772 127.4510  -0.5194 O 1 RES   0.0000
1779 O  -6.7293 124.9178  -1.1418 O 1 RES   0.0000
1780 O  -7.9799 125.9188   1.0345 O 1 RES   0.0000
1781 C  -9.1312 126.1103   0.2412 C 1 RES   0.0000
1782 C  -9.4639 127.6149   0.1289 C 1 RES   0.0000
1783 H  -9.9508 125.5843   0.7666 H 1 RES   0.0000
1784 H  -9.0496 125.6208  -0.7509 H 1 RES   0.0000
1785 N -10.7513 127.9473  -0.5583 N 1 RES   0.0000
1786 H  -8.6182 128.1020  -0.4052 H 1 RES   0.0000
1787 H  -9.4802 128.0324   1.1621 H 1 RES   0.0000
1788 C -10.8656 129.4246  -0.6249 C 1 RES   0.0000
1789 H -10.0209 129.8671  -1.1992 H 1 RES   0.0000
1790 H -10.8580 129.8749   0.3942 H 1 RES   0.0000
1791 H -11.8106 129.7376  -1.1239 H 1 RES   0.0000
1792 C -11.9185 127.4301   0.1969 C 1 RES   0.0000
1793 H -11.9458 126.3200   0.2093 H 1 RES   0.0000
1794 H -12.8751 127.7613  -0.2678 H 1 RES   0.0000
1795 H -11.9080 127.7936   1.2488 H 1 RES   0.0000
1796 C -10.7852 127.4157  -1.9418 C 1 RES   0.0000
1797 H  -9.9054 127.7659  -2.5258 H 1 RES   0.0000
1798 H -11.7055 127.7458  -2.4741 H 1 RES   0.0000
1799 H -10.7984 126.3052  -1.9541 H 1 RES   0.0000
1800 H   2.0656 122.0764  -0.4806 H 1 RES   0.0000
1801 C  -0.0000 121.1376   0.0000 C 1 RES   0.0000
1802 H   1.0125 121.0923   0.3042 H 1 RES   0.0000
1803 H   0.3016 120.6672  -0.7372 H 1 RES   0.0000
1804 O  -2.3164 121.6968  -0.5828 O 1 RES   0.0000
1805 C   1.5206 125.1956   0.2418 C 1 RES   0.0000
1806 C  -0.0000 125.3633   0.0000 C 1 RES   0.0000
1807 H   1.6458 126.2878   0.1280 H 1 RES   0.0000
1808 H   2.3759 125.2496  -0.3869 H 1 RES   0.0000
1809 C  -0.8244 125.4566  -1.2725 C 1 RES   0.0000
1810 O  -1.4175 126.6393  -1.6032 O 1 RES   0.0000
1811 C  -2.5652 126.6675  -2.3803 C 1 RES   0.0000
1812 C  -3.1281 128.0815  -2.5068 C 1 RES   0.0000
1813 H  -3.3324 126.0496  -1.8624 H 1 RES   0.0000
1814 H  -2.3810 126.2386  -3.3899 H 1 RES   0.0000
1815 O  -4.4604 127.9991  -2.9671 O 1 RES   0.0000
1816 H  -2.4519 128.7179  -3.1201 H 1 RES   0.0000
1817 H  -3.1731 128.5411  -1.4969 H 1 RES   0.0000
1818 P  -4.6520 128.6918  -4.5628 P 1 RES   0.0000
1819 O  -3.9300 130.2681  -4.6645 O 1 RES   0.0000
1820 O  -3.9510 127.7349  -5.5657 O 1 RES   0.0000
1821 O  -6.3742 128.7359  -4.9112 O 1 RES   0.0000
1822 C  -6.6273 128.9275  -6.2861 C 1 RES   0.0000
1823 C  -6.7831 130.4321  -6.6008 C 1 RES   0.0000
1824 H  -7.5783 128.4014  -6.4943 H 1 RES   0.0000
1825 H  -5.8680 128.4380  -6.9300 H 1 RES   0.0000
1826 N  -7.2075 130.7645  -7.9971 N 1 RES   0.0000
1827 H  -5.8075 130.9191  -6.3805 H 1 RES   0.0000
1828 H  -7.5252 130.8495  -5.8818 H 1 RES   0.0000
1829 C  -7.2413 132.2417  -8.1251 C 1 RES   0.0000
1830 H  -6.2378 132.6842  -7.9338 H 1 RES   0.0000
1831 H  -7.9565 132.6921  -7.3990 H 1 RES   0.0000
1832 H  -7.5566 132.5548  -9.1461 H 1 RES   0.0000
1833 C  -8.5669 130.2473  -8.2885 C 1 RES   0.0000
1834 H  -8.5949 129.1372  -8.2989 H 1 RES   0.0000
1835 H  -8.9147 130.5784  -9.2934 H 1 RES   0.0000
1836 H  -9.3033 130.6108  -7.5371 H 1 RES   0.0000
1837 C  -6.2533 130.2328  -8.9993 C 1 RES   0.0000
1838 H  -5.2182 130.5830  -8.7902 H 1 RES   0.0000
1839 H  -6.5276 130.5630 -10.0265 H 1 RES   0.0000
1840 H  -6.2538 129.1224  -9.0174 H 1 RES   0.0000
1841 H   1.8005 124.8935   1.1208 H 1 RES   0.0000
1842 C  -0.0000 123.9547   0.0000 C 1 RES   0.0000
1843 H   0.5008 123.9095   0.9311 H 1 RES   0.0000
1844 H   0.7345 123.4844  -0.3080 H 1 RES   0.0000
1845 O  -1.2259 124.5139  -2.0501 O 1 RES   0.0000
1846 C   0.9042 128.0127   1.2462 C 1 RES   0.0000
1847 C  -0.0000 128.1805   0.0000 C 1 RES   0.0000
1848 H   1.0733 129.1049   1.2543 H 1 RES   0.0000
1849 H   1.9536 128.0668   1.4064 H 1 RES   0.0000
1850 C   0.3168 128.2737  -1.4827 C 1 RES   0.0000
1851 O   0.1314 129.4564  -2.1359 O 1 RES   0.0000
1852 C  -0.1308 129.4847  -3.4970 C 1 RES   0.0000
1853 C  -0.4394 130.8987  -3.9845 C 1 RES   0.0000
1854 H  -1.0395 128.8668  -3.6733 H 1 RES   0.0000
1855 H   0.7134 129.0558  -4.0807 H 1 RES   0.0000
1856 O  -1.0559 130.8162  -5.2520 O 1 RES   0.0000
1857 H   0.4725 131.5351  -3.9400 H 1 RES   0.0000
1858 H  -1.1852 131.3582  -3.3022 H 1 RES   0.0000
1859 P  -0.0631 131.5090  -6.5158 P 1 RES   0.0000
1860 O   0.5194 133.0853  -6.0772 O 1 RES   0.0000
1861 O   1.1418 130.5521  -6.7293 O 1 RES   0.0000
1862 O  -1.0345 131.5531  -7.9799 O 1 RES   0.0000
1863 C  -0.2412 131.7446  -9.1312 C 1 RES   0.0000
1864 C  -0.1289 133.2492  -9.4639 C 1 RES   0.0000
1865 H  -0.7666 131.2186  -9.9508 H 1 RES   0.0000
1866 H   0.7509 131.2551  -9.0496 H 1 RES   0.0000
1867 N   0.5583 133.5816 -10.7513 N 1 RES   0.0000
1868 H   0.4052 133.7363  -8.6182 H 1 RES   0.0000
1869 H  -1.1621 133.6667  -9.4802 H 1 RES   0.0000
1870 C   0.6249 135.0589 -10.8656 C 1 RES   0.0000
1871 H   1.1992 135.5014 -10.0209 H 1 RES   0.0000
1872 H  -0.3942 135.5092 -10.8580 H 1 RES   0.0000
1873 H   1.1239 135.3719 -11.8106 H 1 RES   0.0000
1874 C  -0.1969 133.0645 -11.9185 C 1 RES   0.0000
1875 H  -0.2093 131.9543 -11.9458 H 1 RES   0.0000
1876 H   0.2678 133.3956 -12.8751 H 1 RES   0.0000
1877 H  -1.2488 133.4279 -11.9080 H 1 RES   0.0000
1878 C   1.9418 133.0500 -10.7852 C 1 RES   0.0000
1879 H   2.5258 133.4002  -9.9054 H 1 RES   0.0000
1880 H   2.4741 133.3801 -11.7055 H 1 RES   0.0000
1881 H   1.9541 131.9395 -10.7984 H 1 RES   0.0000
1882 H   0.4806 127.7107   2.0656 H 1 RES   0.0000
1883 C  -0.0000 126.7719   0.0000 C 1 RES   0.0000
1884 H  -0.3042 126.7266   1.0125 H 1 RES   0.0000
1885 H   0.7372 126.3015   0.3016 H 1 RES   0.0000
1886 O   0.5828 127.3311  -2.3164 O 1 RES   0.0000
1887 C  -0.2418 130.8299   1.5206 C 1 RES   0.0000
1888 C  -0.0000 130.9976   0.0000 C 1 RES   0.0000
1889 H  -0.1280 131.9221   1.6458 H 1 RES   0.0000
1890 H   0.3869 130.8839   2.3759 H 1 RES   0.0000
1891 C   1.2725 131.0909  -0.8244 C 1 RES   0.0000
1892 O   1.6032 132.2736  -1.4175 O 1 RES   0.0000
1893 C   2.3803 132.3018  -2.5652 C 1 RES   0.0000
1894 C   2.5068 133.7158  -3.1281 C 1 RES   0.0000
1895 H   1.8624 131.6839  -3.3324 H 1 RES   0.0000
1896 H   3.3899 131.8729  -2.3810 H 1 RES   0.0000
1897 O   2.9671 133.6334  -4.4604 O 1 RES   0.0000
1898 H   3.1201 134.3522  -2.4519 H 1 RES   0.0000
1899 H   1.4969 134.1754  -3.1731 H 1 RES   0.0000
1900 P   4.5628 134.3261  -4.6520 P 1 RES   0.0000
1901 O   4.6645 135.9024  -3.9300 O 1 RES   0.0000
1902 O   5.5657 133.3692  -3.9510 O 1 RES   0.0000
1903 O   4.9112 134.3703  -6.3742 O 1 RES   0.0000
1904 C   6.2861 134.5618  -6.6273 C 1 RES   0.0000
1905 C   6.6008 136.0664  -6.7831 C 1 RES   0.0000
1906 H   6.4943 134.0358  -7.5783 H 1 RES   0.0000
1907 H   6.9300 134.0723  -5.8680 H 1 RES   0.0000
1908 N   7.9971 136.3988  -7.2075 N 1 RES   0.0000
1909 H   6.3805 136.5535  -5.8075 H 1 RES   0.0000
1910 H   5.8818 136.4839  -7.5252 H 1 RES   0.0000
1911 C   8.1251 137.8760  -7.2413 C 1 RES   0.0000
1912 H   7.9338 138.3185  -6.2378 H 1 RES   0.0000
1913 H   7.3990 138.3264  -7.9565 H 1 RES   0.0000
1914 H   9.1461 138.1891  -7.5566 H 1 RES   0.0000
1915 C   8.2885 135.8816  -8.5669 C 1 RES   0.0000
1916 H   8.2989 134.7715  -8.5949 H 1 RES   0.0000
1917 H   9.2934 136.2127  -8.9147 H 1 RES   0.0000
1918 H   7.5371 136.2451  -9.3033 H 1 RES   0.0000
1919 C   8.9993 135.8671  -6.2533 C 1 RES   0.0000
1920 H   8.7902 136.2173  -5.2182 H 1 RES   0.0000
1921 H  10.0265 136.1973  -6.5276 H 1 RES   0.0000
1922 H   9.0174 134.7567  -6.2538 H 1 RES   0.0000
1923 H  -1.1208 130.5278   1.8005 H 1 RES   0.0000
1924 C  -0.0000 129.5891   0.0000 C 1 RES   0.0000
1925 H  -0.9311 129.5438   0.5008 H 1 RES   0.0000
1926 H   0.3080 129.1187   0.7345 H 1 RES   0.0000
1927 O   2.0501 130.1482  -1.2259 O 1 RES   0.0000
1928 C  -1.2462 133.6470   0.9042 C 1 RES   0.0000
1929 C  -0.0000 133.8148   0.0000 C 1 RES   0.0000
1930 H  -1.2543 134.7392   1.0733 H 1 RES   0.0000
1931 H  -1.4064 133.7011   1.9536 H 1 RES   0.0000
1932 C   1.4827 133.9080   0.3168 C 1 RES   0.0000
1933 O   2.1359 135.0907   0.1314 O 1 RES   0.0000
1934 C   3.4970 135.1190  -0.1308 C 1 RES   0.0000
1935 C   3.9845 136.5330  -0.4394 C 1 RES   0.0000
1936 H   3.6733 134.5011  -1.0395 H 1 RES   0.0000
1937 H   4.0807 134.6901   0.7134 H 1 RES   0.0000
1938 O   5.2520 136.4505  -1.0559 O 1 RES   0.0000
1939 H   3.9400 137.1694   0.4725 H 1 RES   0.0000
1940 H   3.3022 136.9925  -1.1852 H 1 RES   0.0000
1941 P   6.5158 137.1433  -0.0631 P 1 RES   0.0000
1942 O   6.0772 138.7196   0.5194 O 1 RES   0.0000
1943 O   6.7293 136.1864   1.1418 O 1 RES   0.0000
1944 O   7.9799 137.1874  -1.0345 O 1 RES   0.0000
1945 C   9.1312 137.3789  -0.2412 C 1 RES   0.0000
1946 C   9.4639 138.8835  -0.1289 C 1 RES   0.0000
1947 H   9.9508 136.8529  -0.7666 H 1 RES   0.0000
1948 H   9.0496 136.8894   0.7509 H 1 RES   0.0000
1949 N  10.7513 139.2159   0.5583 N 1 RES   0.0000
1950 H   8.6182 139.3706   0.4052 H 1 RES   0.0000
1951 H   9.4802 139.3010  -1.1621 H 1 RES   0.0000
1952 C  10.8656 140.6932   0.6249 C 1 RES   0.0000
1953 H  10.0209 141.1357   1.1992 H 1 RES   0.0000
1954 H  10.8580 141.1435  -0.3942 H 1 RES   0.0000
1955 H  11.8106 141.0063   1.1239 H 1 RES   0.0000
1956 C  11.9185 138.6988  -0.1969 C 1 RES   0.0000
1957 H  11.9458 137.5886  -0.2093 H 1 RES   0.0000
1958 H  12.8751 139.0299   0.2678 H 1 RES   0.0000
1959 H  11.9080 139.0622  -1.2488 H 1 RES   0.0000
1960 C  10.7852 138.6843   1.9418 C 1 RES   0.0000
1961 H   9.9054 139.0345   2.5258 H 1 RES   0.0000
1962 H  11.7055 139.0144   2.4741 H 1 RES   0.0000
1963 H  10.7984 137.5739   1.9541 H 1 RES   0.0000
1964 H  -2.0656 133.3450   0.4806 H 1 RES   0.0000
1965 C  -0.0000 132.4062   0.0000 C 1 RES   0.0000
1966 H  -1.0125 132.3610  -0.3042 H 1 RES   0.0000
1967 H  -0.3016 131.9358   0.7372 H 1 RES   0.0000
1968 O   2.3164 132.9654   0.5828 O 1 RES   0.0000
1969 C  -1.5206 136.4642  -0.2418 C 1 RES   0.0000
1970 C  -0.0000 136.6319   0.0000 C 1 RES   0.0000
1971 H  -1.6458 137.5564  -0.1280 H 1 RES   0.0000
1972 H  -2.3759 136.5182   0.3869 H 1 RES   0.0000
1973 C   0.8244 136.7252   1.2725 C 1 RES   0.0000
1974 O   1.4175 137.9079   1.6032 O 1 RES   0.0000
1975 C   2.5652 137.9361   2.3803 C 1 RES   0.0000
1976 C   3.1281 139.3501   2.5068 C 1 RES   0.0000
1977 H   3.3324 137.3182   1.8624 H 1 RES   0.0000
1978 H   2.3810 137.5072   3.3899 H 1 RES   0.0000
1979 O   4.4604 139.2677   2.9671 O 1 RES   0.0000
1980 H   2.4519 139.9865   3.1201 H 1 RES   0.0000
1981 H   3.1731 139.8097   1.4969 H 1 RES   0.0000
1982 P   4.6520 139.9604   4.5628 P 1 RES   0.0000
1983 O   3.9300 141.5367   4.6645 O 1 RES   0.0000
1984 O   3.9510 139.0035   5.5657 O 1 RES   0.0000
1985 O   6.3742 140.0046   4.9112 O 1 RES   0.0000
1986 C   6.6273 140.1961   6.2861 C 1 RES   0.0000
1987 C   6.7831 141.7007   6.6008 C 1 RES   0.0000
1988 H   7.5783 139.6701   6.4943 H 1 RES   0.0000
1989 H   5.8680 139.7066   6.9300 H 1 RES   0.0000
1990 N   7.2075 142.0331   7.9971 N 1 RES   0.0000
1991 H   5.8075 142.1877   6.3805 H 1 RES   0.0000
1992 H   7.5252 142.1182   5.8818 H 1 RES   0.0000
1993 C   7.2413 143.5103   8.1251 C 1 RES   0.0000
1994 H   6.2378 143.9529   7.9338 H 1 RES   0.0000
1995 H   7.9565 143.9607   7.3990 H 1 RES   0.0000
1996 H   7.5566 143.8234   9.1461 H 1 RES   0.0000
1997 C   8.5669 141.5159   8.2885 C 1 RES   0.0000
1998 H   8.5949 140.4058   8.2989 H 1 RES   0.0000
1999 H   8.9147 141.8470   9.2934 H 1 RES   0.0000
2000 H   9.3033 141.8794   7.5371 H 1 RES   0.0000
2001 C   6.2533 141.5014   8.9993 C 1 RES   0.0000
2002 H   5.2182 141.8516   8.7902 H 1 RES   0.0000
2003 H   6.5276 141.8316  10.0265 H 1 RES   0.0000
2004 H   6.2538 140.3910   9.0174 H 1 RES   0.0000
2005 H  -1.8005 136.1621  -1.1208 H 1 RES   0.0000
2006 C  -0.0000 135.2234   0.0000 C 1 RES   0.0000
2007 H  -0.5008 135.1781  -0.9311 H 1 RES   0.0000
2008 H  -0.7345 134.7530   0.3080 H 1 RES   0.0000
2009 O   1.2259 135.7825   2.0501 O 1 RES   0.0000
2010 C  -0.9042 139.2813  -1.2462 C 1 RES   0.0000
2011 C  -0.0000 139.4491   0.0000 C 1 RES   0.0000
2012 H  -1.0733 140.3735  -1.2543 H 1 RES   0.0000
2013 H  -1.9536 139.3354  -1.4064 H 1 RES   0.0000
2014 C  -0.3168 139.5423   1.4827 C 1 RES   0.0000
2015 O  -0.1314 140.7250   2.1359 O 1 RES   0.0000
2016 C   0.1308 140.7533   3.4970 C 1 RES   0.0000
2017 C   0.4394 142.1673   3.9845 C 1 RES   0.0000
2018 H   1.0395 140.1354   3.6733 H 1 RES   0.0000
2019 H  -0.7134 140.3244   4.0807 H 1 RES   0.0000
2020 O   1.0559 142.0848   5.2520 O 1 RES   0.0000
2021 H  -0.4725 142.8037   3.9400 H 1 RES   0.0000
2022 H   1.1852 142.6268   3.3022 H 1 RES   0.0000
2023 P   0.0631 142.7776   6.5158 P 1 RES   0.0000
2024 O  -0.5194 144.3539   6.0772 O 1 RES   0.0000
2025 O  -1.1418 141.8207   6.7293 O 1 RES   0.0000
2026 O   1.0345 142.8217   7.9799 O 1 RES   0.0000
2027 C   0.2412 143.0132   9.1312 C 1 RES   0.0000
2028 C   0.1289 144.5178   9.4639 C 1 RES   0.0000
2029 H   0.7666 142.4872   9.9508 H 1 RES   0.0000
2030 H  -0.7509 142.5237   9.0496 H 1 RES   0.0000
2031 N  -0.5583 144.8502  10.7513 N 1 RES   0.0000
2032 H  -0.4052 145.0049   8.6182 H 1 RES   0.0000
2033 H   1.1621 144.9353   9.4802 H 1 RES   0.0000
2034 C  -0.6249 146.3275  10.8656 C 1 RES   0.0000
2035 H  -1.1992 146.7700  10.0209 H 1 RES   0.0000
2036 H   0.3942 146.7778  10.8580 H 1 RES   0.0000
2037 H  -1.1239 146.6406  11.8106 H 1 RES   0.0000
2038 C   0.1969 144.3331  11.9185 C 1 RES   0.0000
2039 H   0.2093 143.2229  11.9458 H 1 RES   0.0000
2040 H  -0.2678 144.6642  12.8751 H 1 RES   0.0000
2041 H   1.2488 144.6965  11.9080 H 1 RES   0.0000
2042 C  -1.9418 144.3186  10.7852 C 1 RES   0.0000
2043 H  -2.5258 144.6688   9.9054 H 1 RES   0.0000
2044 H  -2.4741 144.6487  11.7055 H 1 RES   0.0000
2045 H  -1.9541 143.2082  10.7984 H 1 RES   0.0000
2046 H  -0.4806 138.9793  -2.0656 H 1 RES   0.0000
2047 C  -0.0000 138.0405   0.0000 C 1 RES   0.0000
2048 H   0.3042 137.9953  -1.0125 H 1 RES   0.0000
2049 H  -0.7372 137.5701  -0.3016 H 1 RES   0.0000
2050 O  -0.5828 138.5997   2.3164 O 1 RES   0.0000
2051 C  -0.0000 140.8534   0.0000 C 1 RES   0.0000
2052 H   0.7566 140.8534   0.7566 H 1 RES   0.0000
2053 H  -0.7142 141.6224   0.2093 H 1 RES   0.0000
2054 H   0.4497 141.0344  -0.9546 H 1 RES   0.0000
2055 C  -0.0000  -1.4043   0.0000 C 1 RES   0.0000
2056 H  -0.7566  -1.4043   0.7566 H 1 RES   0.0000
2057 H   0.7142  -2.1733   0.2093 H 1 RES   0.0000
2058 H  -0.4497  -1.5853  -0.9546 H 1 RES   0.0000
@<TRIPOS>BOND
1 1208 1212 1
2 305 308 1
3 1665 1667 1
4 223 225 1
5 1208 1213 1
6 661 697 1
7 1812 1815 1
8 1815 1818 1
9 1751 1753 1
10 1214 1216 1
11 1214 1215 1
12 1211 1214 1
13 1214 1217 1
14 305 307 1
15 756 757 1
16 757 762 1
17 757 761 1
18 757 760 1
19 212 215 1
20 1997 1999 1
21 674 675 1
22 675 680 1
23 675 679 1
24 675 678 1
25 1764 1767 1
26 306 310 1
27 305 306 1
28 306 311 1
29 306 309 1
30 1632 1635 1
31 165 167 1
32 165 168 1
33 165 166 1
34 165 201 1
35 1314 1317 1
36 1317 1318 1
37 1317 1353 1
38 1600 1636 1
39 998 999 1
40 59 60 1
41 59 61 1
42 59 62 1
43 58 59 1
44 1026 1028 1
45 1026 1027 1
46 1026 1062 1
47 1026 1029 1
48 1887 1890 1
49 1218 1219 1
50 1022 1027 1
51 1027 1030 1
52 1027 1063 1
53 1591 1594 1
54 1218 1220 1
55 304 305 1
56 301 304 1
57 1290 1294 1
58 1290 1293 1
59 1289 1290 1
60 1290 1295 1
61 210 211 1
62 211 212 1
63 1637 1639 1
64 213 217 1
65 213 216 1
66 212 213 1
67 213 218 1
68 511 515 1
69 1222 1224 1
70 1222 1223 1
71 1211 1222 1
72 1222 1225 1
73 981 983 1
74 1030 1031 1
75 1030 1066 1
76 525 526 1
77 1604 1605 1
78 1604 1640 1
79 1601 1604 1
80 1031 1032 1
81 301 302 1
82 1891 1892 1
83 1891 1927 1
84 1888 1891 1
85 1033 1036 1
86 1032 1033 1
87 1033 1038 1
88 1033 1037 1
89 863 866 1
90 863 899 1
91 862 863 1
92 858 863 1
93 1559 1595 1
94 1190 1226 1
95 83 86 1
96 83 84 1
97 83 119 1
98 83 85 1
99 298 301 1
100 301 303 1
101 1632 1634 1
102 1621 1632 1
103 1632 1633 1
104 260 261 1
105 1032 1035 1
106 1227 1228 1
107 948 984 1
108 558 561 1
109 295 300 1
110 1227 1229 1
111 920 923 1
112 985 987 1
113 1194 1230 1
114 336 339 1
115 336 340 1
116 335 336 1
117 336 341 1
118 55 58 1
119 295 299 1
120 1669 1670 1
121 1036 1039 1
122 1039 1042 1
123 1039 1041 1
124 1039 1040 1
125 1596 1598 1
126 1596 1597 1
127 1560 1596 1
128 1596 1601 1
129 295 298 1
130 1375 1382 1
131 1372 1375 1
132 1375 1386 1
133 1375 1378 1
134 1162 1164 1
135 1320 1324 1
136 380 383 1
137 377 380 1
138 1042 1043 1
139 924 931 1
140 921 924 1
141 924 927 1
142 924 935 1
143 1043 1044 1
144 1043 1046 1
145 1043 1045 1
146 752 753 1
147 294 296 1
148 137 139 1
149 1453 1455 1
150 1259 1262 1
151 1853 1857 1
152 294 295 1
153 1132 1133 1
154 1621 1624 1
155 1624 1627 1
156 1624 1626 1
157 1624 1625 1
158 1244 1247 1
159 1247 1248 1
160 1044 1047 1
161 1047 1050 1
162 1047 1054 1
163 1047 1058 1
164 950 953 1
165 950 952 1
166 950 951 1
167 949 950 1
168 890 893 1
169 293 294 1
170 294 297 1
171 1263 1266 1
172 1044 1049 1
173 247 249 1
174 247 283 1
175 247 250 1
176 247 248 1
177 292 293 1
178 1893 1894 1
179 1894 1899 1
180 1894 1898 1
181 1894 1897 1
182 1050 1051 1
183 550 551 1
184 547 550 1
185 1915 1918 1
186 292 328 1
187 289 292 1
188 1132 1135 1
189 1129 1132 1
190 1132 1134 1
191 1050 1053 1
192 1997 2000 1
193 1641 1642 1
194 1641 1677 1
195 1641 1644 1
196 1641 1643 1
197 951 954 1
198 951 956 1
199 951 955 1
200 288 291 1
201 271 274 1
202 1642 1678 1
203 1637 1642 1
204 1642 1645 1
205 1263 1265 1
206 715 717 1
207 821 824 1
208 821 823 1
209 821 822 1
210 821 857 1
211 288 290 1
212 1628 1630 1
213 1419 1421 1
214 1893 1895 1
215 115 116 1
216 271 273 1
217 1911 1914 1
218 1419 1422 1
219 1563 1599 1
220 894 897 1
221 115 118 1
222 104 115 1
223 115 117 1
224 1211 1218 1
225 1218 1221 1
226 1009 1012 1
227 1009 1011 1
228 1009 1010 1
229 1006 1009 1
230 1423 1424 1
231 1700 1705 1
232 771 773 1
233 1682 1684 1
234 1054 1056 1
235 1054 1057 1
236 1054 1055 1
237 1423 1425 1
238 899 900 1
239 1874 1877 1
240 927 930 1
241 927 929 1
242 927 928 1
243 111 114 1
244 1203 1206 1
245 1206 1207 1
246 1427 1430 1
247 1427 1429 1
248 1427 1428 1
249 1416 1427 1
250 1842 1847 1
251 1847 1850 1
252 1847 1883 1
253 1846 1847 1
254 1013 1015 1
255 1013 1014 1
256 1006 1013 1
257 1013 1016 1
258 1805 1808 1
259 43 79 1
260 79 81 1
261 79 84 1
262 79 80 1
263 1252 1263 1
264 1249 1252 1
265 1252 1259 1
266 1252 1255 1
267 1268 1270 1
268 1637 1638 1
269 1601 1637 1
270 1395 1431 1
271 1017 1020 1
272 1017 1019 1
273 1017 1018 1
274 1006 1017 1
275 716 719 1
276 719 722 1
277 719 730 1
278 719 726 1
279 1432 1433 1
280 1396 1432 1
281 1432 1437 1
282 1432 1434 1
283 771 772 1
284 760 771 1
285 771 774 1
286 137 140 1
287 137 138 1
288 134 137 1
289 124 127 1
290 107 109 1
291 1460 1462 1
292 1760 1761 1
293 1181 1183 1
294 1181 1182 1
295 1170 1181 1
296 1181 1184 1
297 1345 1348 1
298 1399 1435 1
299 428 430 1
300 107 108 1
301 1402 1406 1
302 1022 1023 1
303 1022 1024 1
304 986 1022 1
305 1167 1172 1
306 716 720 1
307 1068 1071 1
308 1071 1107 1
309 1071 1072 1
310 335 337 1
311 1723 1725 1
312 1723 1724 1
313 1723 1759 1
314 1723 1726 1
315 484 485 1
316 484 487 1
317 484 486 1
318 473 484 1
319 101 106 1
320 1719 1724 1
321 1724 1727 1
322 1724 1760 1
323 1244 1245 1
324 1162 1163 1
325 202 204 1
326 377 382 1
327 377 381 1
328 376 377 1
329 1727 1728 1
330 1727 1763 1
331 456 492 1
332 104 107 1
333 104 111 1
334 101 104 1
335 716 721 1
336 1150 1153 1
337 1145 1150 1
338 1149 1150 1
339 1150 1186 1
340 1044 1048 1
341 1149 1151 1
342 131 136 1
343 224 228 1
344 223 224 1
345 224 229 1
346 224 227 1
347 100 103 1
348 1149 1152 1
349 1149 1185 1
350 1531 1532 1
351 1140 1142 1
352 1140 1141 1
353 1129 1140 1
354 1140 1143 1
355 1154 1155 1
356 1153 1154 1
357 197 200 1
358 903 906 1
359 931 933 1
360 931 934 1
361 931 932 1
362 1730 1734 1
363 1628 1631 1
364 1730 1735 1
365 96 99 1
366 99 100 1
367 1155 1158 1
368 1186 1188 1
369 1186 1187 1
370 1186 1191 1
371 1058 1061 1
372 1058 1060 1
373 1058 1059 1
374 904 940 1
375 903 904 1
376 899 904 1
377 904 907 1
378 883 886 1
379 886 889 1
380 886 888 1
381 886 887 1
382 1159 1162 1
383 1156 1159 1
384 1177 1180 1
385 1177 1179 1
386 1170 1177 1
387 1177 1178 1
388 1289 1292 1
389 96 98 1
390 1145 1147 1
391 1436 1437 1
392 1437 1440 1
393 1437 1473 1
394 1682 1685 1
395 957 958 1
396 954 957 1
397 957 960 1
398 957 959 1
399 1326 1328 1
400 1156 1161 1
401 1764 1766 1
402 1764 1765 1
403 1764 1800 1
404 1768 1804 1
405 193 196 1
406 991 994 1
407 1162 1165 1
408 1166 1167 1
409 1167 1171 1
410 1167 1170 1
411 908 909 1
412 907 908 1
413 1334 1345 1
414 1345 1347 1
415 1345 1346 1
416 271 272 1
417 268 271 1
418 1837 1839 1
419 1481 1482 1
420 1481 1517 1
421 1478 1481 1
422 90 95 1
423 968 969 1
424 288 289 1
425 284 289 1
426 289 325 1
427 1805 1841 1
428 960 961 1
429 288 324 1
430 558 560 1
431 1751 1752 1
432 1744 1751 1
433 1751 1754 1
434 90 93 1
435 93 96 1
436 1842 1843 1
437 29 31 1
438 962 966 1
439 962 965 1
440 961 962 1
441 962 967 1
442 1905 1908 1
443 1908 1911 1
444 1908 1919 1
445 1908 1915 1
446 1842 1844 1
447 1032 1034 1
448 391 402 1
449 391 394 1
450 388 391 1
451 391 398 1
452 1809 1845 1
453 223 226 1
454 222 223 1
455 961 964 1
456 89 91 1
457 965 972 1
458 965 976 1
459 965 968 1
460 1695 1697 1
461 644 646 1
462 90 94 1
463 89 90 1
464 644 647 1
465 968 971 1
466 968 970 1
467 418 422 1
468 417 418 1
469 418 423 1
470 418 421 1
471 387 388 1
472 388 392 1
473 388 393 1
474 87 88 1
475 88 89 1
476 1856 1859 1
477 1859 1862 1
478 1859 1861 1
479 1859 1860 1
480 664 667 1
481 663 664 1
482 664 669 1
483 664 668 1
484 1326 1327 1
485 1323 1326 1
486 1326 1329 1
487 1 4 1
488 2015 2016 1
489 2016 2019 1
490 2016 2018 1
491 2016 2017 1
492 972 974 1
493 972 975 1
494 972 973 1
495 2014 2050 1
496 663 666 1
497 992 997 1
498 667 670 1
499 755 756 1
500 756 759 1
501 756 758 1
502 511 516 1
503 620 656 1
504 976 977 1
505 1191 1227 1
506 1227 1232 1
507 976 978 1
508 976 979 1
509 935 936 1
510 883 890 1
511 880 883 1
512 883 894 1
513 944 946 1
514 944 945 1
515 944 980 1
516 944 947 1
517 1801 1802 1
518 1801 1806 1
519 1801 1803 1
520 1765 1801 1
521 1699 1701 1
522 834 837 1
523 837 838 1
524 489 490 1
525 1203 1204 1
526 1293 1300 1
527 1293 1304 1
528 1293 1296 1
529 1647 1649 1
530 945 948 1
531 948 949 1
532 1436 1438 1
533 1565 1568 1
534 521 522 1
535 514 521 1
536 521 523 1
537 521 524 1
538 517 518 1
539 25 28 1
540 1878 1879 1
541 376 379 1
542 674 677 1
543 1846 1849 1
544 1846 1848 1
545 1846 1882 1
546 1440 1441 1
547 1440 1476 1
548 2001 2004 1
549 517 519 1
550 376 378 1
551 1386 1389 1
552 1850 1851 1
553 1850 1886 1
554 387 389 1
555 1576 1578 1
556 588 590 1
557 1851 1852 1
558 375 376 1
559 940 941 1
560 940 945 1
561 940 942 1
562 2047 2048 1
563 530 531 1
564 945 981 1
565 325 330 1
566 325 326 1
567 325 327 1
568 2047 2049 1
569 186 193 1
570 193 194 1
571 193 195 1
572 838 841 1
573 46 82 1
574 1330 1333 1
575 189 192 1
576 347 351 1
577 685 687 1
578 1669 1671 1
579 1662 1669 1
580 1669 1672 1
581 1454 1458 1
582 189 191 1
583 500 505 1
584 648 651 1
585 648 650 1
586 637 648 1
587 648 649 1
588 1350 1352 1
589 1442 1444 1
590 730 731 1
591 2006 2008 1
592 2055 2058 1
593 2055 2057 1
594 2 2055 1
595 2055 2056 1
596 838 840 1
597 838 839 1
598 197 199 1
599 330 366 1
600 366 367 1
601 366 368 1
602 366 371 1
603 183 188 1
604 60 65 1
605 1534 1535 1
606 1531 1534 1
607 1153 1189 1
608 387 390 1
609 386 387 1
610 350 357 1
611 347 350 1
612 350 361 1
613 350 353 1
614 183 187 1
615 2001 2003 1
616 1728 1729 1
617 186 197 1
618 183 186 1
619 186 189 1
620 312 315 1
621 309 312 1
622 309 320 1
623 309 316 1
624 596 599 1
625 599 602 1
626 599 601 1
627 599 600 1
628 74 76 1
629 582 587 1
630 182 185 1
631 1806 1842 1
632 182 184 1
633 1391 1393 1
634 1436 1439 1
635 1687 1688 1
636 1686 1687 1
637 182 183 1
638 181 182 1
639 749 752 1
640 746 749 1
641 1378 1381 1
642 2034 2037 1
643 33 34 1
644 1272 1273 1
645 1272 1308 1
646 1272 1275 1
647 1272 1274 1
648 685 688 1
649 685 686 1
650 678 685 1
651 178 179 1
652 175 178 1
653 178 180 1
654 178 181 1
655 189 190 1
656 558 559 1
657 1067 1103 1
658 1518 1554 1
659 2051 2053 1
660 2051 2054 1
661 2051 2052 1
662 2047 2051 1
663 784 785 1
664 784 820 1
665 781 784 1
666 1460 1461 1
667 1457 1460 1
668 1460 1463 1
669 124 126 1
670 1273 1309 1
671 1273 1276 1
672 1268 1273 1
673 171 174 1
674 1314 1350 1
675 1313 1314 1
676 1309 1314 1
677 172 177 1
678 1710 1713 1
679 172 176 1
680 417 420 1
681 417 419 1
682 416 417 1
683 172 175 1
684 1484 1487 1
685 1483 1484 1
686 1484 1489 1
687 1484 1488 1
688 1248 1251 1
689 1248 1250 1
690 1248 1249 1
691 1678 1679 1
692 1126 1131 1
693 798 803 1
694 798 802 1
695 797 798 1
696 798 801 1
697 1621 1628 1
698 1628 1629 1
699 480 482 1
700 1367 1368 1
701 374 375 1
702 2014 2015 1
703 2011 2014 1
704 1073 1076 1
705 1073 1075 1
706 1073 1074 1
707 1072 1073 1
708 797 800 1
709 2001 2002 1
710 1331 1335 1
711 1331 1334 1
712 1330 1331 1
713 1331 1336 1
714 100 101 1
715 100 102 1
716 374 410 1
717 371 374 1
718 480 483 1
719 1473 1474 1
720 47 48 1
721 46 47 1
722 1591 1592 1
723 1473 1475 1
724 1535 1536 1
725 1535 1538 1
726 1535 1537 1
727 1560 1563 1
728 1559 1560 1
729 1555 1560 1
730 476 479 1
731 1278 1281 1
732 804 805 1
733 1770 1772 1
734 19 23 1
735 19 24 1
736 18 19 1
737 19 22 1
738 804 806 1
739 2017 2021 1
740 1318 1319 1
741 370 371 1
742 371 407 1
743 1973 2009 1
744 808 811 1
745 808 810 1
746 808 809 1
747 801 808 1
748 1863 1864 1
749 1862 1863 1
750 1863 1866 1
751 1863 1865 1
752 1605 1606 1
753 1606 1609 1
754 1606 1608 1
755 1606 1607 1
756 812 814 1
757 812 813 1
758 801 812 1
759 812 815 1
760 1501 1504 1
761 1618 1621 1
762 470 474 1
763 2038 2040 1
764 2038 2039 1
765 2031 2038 1
766 2038 2041 1
767 141 143 1
768 141 144 1
769 140 141 1
770 141 142 1
771 1289 1291 1
772 1788 1789 1
773 1788 1791 1
774 1788 1790 1
775 1785 1788 1
776 1074 1077 1
777 1077 1080 1
778 473 476 1
779 473 480 1
780 470 473 1
781 591 592 1
782 588 591 1
783 780 816 1
784 1837 1840 1
785 658 661 1
786 661 662 1
787 1241 1244 1
788 1244 1246 1
789 817 819 1
790 817 818 1
791 781 817 1
792 817 822 1
793 8 12 1
794 7 8 1
795 8 13 1
796 8 11 1
797 1613 1614 1
798 694 699 1
799 699 702 1
800 699 735 1
801 698 699 1
802 1555 1557 1
803 1555 1556 1
804 1519 1555 1
805 2031 2034 1
806 2034 2036 1
807 2034 2035 1
808 681 683 1
809 681 682 1
810 678 681 1
811 681 684 1
812 592 595 1
813 592 594 1
814 592 593 1
815 346 347 1
816 346 348 1
817 346 349 1
818 345 346 1
819 1617 1619 1
820 1320 1325 1
821 207 210 1
822 210 246 1
823 275 277 1
824 1300 1301 1
825 1276 1277 1
826 1276 1312 1
827 1115 1119 1
828 1249 1253 1
829 42 45 1
830 1249 1254 1
831 653 658 1
832 657 658 1
833 658 694 1
834 465 467 1
835 1255 1258 1
836 1255 1257 1
837 1255 1256 1
838 593 597 1
839 593 596 1
840 593 598 1
841 465 466 1
842 2042 2043 1
843 1367 1369 1
844 254 257 1
845 257 260 1
846 2042 2044 1
847 506 507 1
848 1080 1081 1
849 2042 2045 1
850 551 553 1
851 265 269 1
852 2010 2011 1
853 2010 2046 1
854 2010 2013 1
855 2010 2012 1
856 787 791 1
857 459 463 1
858 197 198 1
859 1536 1541 1
860 1536 1540 1
861 1536 1539 1
862 534 537 1
863 448 450 1
864 171 173 1
865 1969 2005 1
866 1730 1733 1
867 1729 1730 1
868 171 172 1
869 702 703 1
870 702 738 1
871 703 704 1
872 125 128 1
873 125 161 1
874 120 125 1
875 124 125 1
876 793 796 1
877 796 797 1
878 74 75 1
879 704 707 1
880 704 706 1
881 704 705 1
882 1741 1745 1
883 169 170 1
884 170 171 1
885 458 459 1
886 459 462 1
887 459 464 1
888 1296 1299 1
889 1296 1298 1
890 1296 1297 1
891 166 169 1
892 169 205 1
893 1441 1442 1
894 1689 1692 1
895 1689 1694 1
896 1689 1693 1
897 1688 1689 1
898 1699 1702 1
899 1699 1700 1
900 1698 1699 1
901 705 708 1
902 708 711 1
903 1610 1613 1
904 1607 1610 1
905 18 20 1
906 514 525 1
907 525 528 1
908 525 527 1
909 880 884 1
910 705 710 1
911 711 714 1
912 711 713 1
913 711 712 1
914 1063 1064 1
915 1063 1068 1
916 1063 1065 1
917 342 344 1
918 497 498 1
919 494 497 1
920 497 533 1
921 694 695 1
922 890 892 1
923 1744 1755 1
924 1755 1758 1
925 1755 1757 1
926 1755 1756 1
927 1190 1193 1
928 1190 1192 1
929 1190 1191 1
930 493 496 1
931 714 715 1
932 1191 1194 1
933 1911 1912 1
934 715 716 1
935 715 718 1
936 842 853 1
937 839 842 1
938 842 849 1
939 842 845 1
940 921 926 1
941 1194 1195 1
942 1195 1196 1
943 279 280 1
944 142 147 1
945 1173 1175 1
946 1173 1174 1
947 1170 1173 1
948 1173 1176 1
949 1196 1199 1
950 1196 1198 1
951 1196 1197 1
952 1330 1332 1
953 1277 1278 1
954 1197 1202 1
955 1197 1201 1
956 1197 1200 1
957 493 529 1
958 415 416 1
959 722 724 1
960 722 723 1
961 722 725 1
962 87 123 1
963 1483 1486 1
964 275 276 1
965 275 278 1
966 268 275 1
967 42 44 1
968 1200 1203 1
969 448 453 1
970 448 449 1
971 412 448 1
972 2020 2023 1
973 2017 2020 1
974 1518 1521 1
975 1518 1520 1
976 1518 1519 1
977 493 495 1
978 726 729 1
979 726 728 1
980 726 727 1
981 1203 1205 1
982 494 530 1
983 530 535 1
984 530 532 1
985 1468 1469 1
986 1468 1471 1
987 1468 1470 1
988 1457 1468 1
989 489 491 1
990 264 266 1
991 1155 1156 1
992 1156 1160 1
993 730 732 1
994 730 733 1
995 1207 1210 1
996 1207 1209 1
997 1207 1208 1
998 1519 1522 1
999 1514 1519 1
1000 663 665 1
1001 662 663 1
1002 1208 1211 1
1003 1395 1396 1
1004 1396 1399 1
1005 1391 1396 1
1006 1136 1138 1
1007 698 734 1
1008 735 736 1
1009 735 740 1
1010 735 737 1
1011 265 268 1
1012 265 270 1
1013 264 265 1
1014 1935 1939 1
1015 1482 1483 1
1016 1483 1485 1
1017 588 589 1
1018 462 465 1
1019 1395 1397 1
1020 1607 1611 1
1021 458 461 1
1022 498 499 1
1023 458 460 1
1024 453 456 1
1025 456 457 1
1026 268 279 1
1027 230 232 1
1028 894 896 1
1029 1487 1490 1
1030 1490 1493 1
1031 1490 1492 1
1032 1490 1491 1
1033 489 494 1
1034 453 489 1
1035 596 603 1
1036 596 607 1
1037 480 481 1
1038 264 267 1
1039 263 264 1
1040 1155 1157 1
1041 540 543 1
1042 219 221 1
1043 394 397 1
1044 1395 1398 1
1045 457 458 1
1046 493 494 1
1047 320 323 1
1048 131 135 1
1049 1494 1495 1
1050 1495 1500 1
1051 1495 1499 1
1052 1495 1498 1
1053 1003 1008 1
1054 1522 1523 1
1055 1522 1558 1
1056 1494 1497 1
1057 1399 1400 1
1058 603 605 1
1059 603 604 1
1060 603 606 1
1061 1115 1118 1
1062 1118 1121 1
1063 260 263 1
1064 1692 1695 1
1065 452 454 1
1066 1109 1145 1
1067 1145 1146 1
1068 452 453 1
1069 452 455 1
1070 1126 1130 1
1071 514 517 1
1072 511 514 1
1073 1501 1503 1
1074 1501 1502 1
1075 1498 1501 1
1076 1108 1111 1
1077 1523 1524 1
1078 1401 1404 1
1079 1121 1124 1
1080 1121 1123 1
1081 1121 1122 1
1082 607 608 1
1083 1400 1401 1
1084 607 609 1
1085 254 259 1
1086 1050 1052 1
1087 1892 1893 1
1088 1402 1407 1
1089 1870 1872 1
1090 1870 1871 1
1091 1867 1870 1
1092 1870 1873 1
1093 575 611 1
1094 1405 1408 1
1095 1408 1411 1
1096 1408 1410 1
1097 1408 1409 1
1098 14 17 1
1099 17 18 1
1100 612 613 1
1101 576 612 1
1102 612 617 1
1103 612 614 1
1104 1524 1527 1
1105 1524 1526 1
1106 1524 1525 1
1107 1729 1732 1
1108 985 986 1
1109 985 1021 1
1110 985 988 1
1111 253 256 1
1112 1401 1403 1
1113 1401 1402 1
1114 1509 1511 1
1115 1509 1510 1
1116 1498 1509 1
1117 1509 1512 1
1118 579 615 1
1119 329 365 1
1120 254 258 1
1121 253 254 1
1122 234 237 1
1123 1542 1544 1
1124 1412 1414 1
1125 763 765 1
1126 206 208 1
1127 1412 1415 1
1128 251 252 1
1129 252 253 1
1130 1525 1530 1
1131 1525 1529 1
1132 1525 1528 1
1133 1413 1416 1
1134 1416 1419 1
1135 1416 1423 1
1136 361 363 1
1137 1514 1515 1
1138 1883 1884 1
1139 1607 1612 1
1140 251 287 1
1141 248 251 1
1142 1413 1418 1
1143 1350 1351 1
1144 361 362 1
1145 145 152 1
1146 145 148 1
1147 145 156 1
1148 142 145 1
1149 678 689 1
1150 1067 1069 1
1151 1067 1068 1
1152 1067 1070 1
1153 1419 1420 1
1154 1068 1104 1
1155 899 901 1
1156 42 78 1
1157 552 557 1
1158 506 509 1
1159 509 510 1
1160 1531 1533 1
1161 1805 1807 1
1162 1805 1806 1
1163 506 508 1
1164 1806 1809 1
1165 452 488 1
1166 234 236 1
1167 607 610 1
1168 1412 1413 1
1169 1413 1417 1
1170 111 113 1
1171 1945 1948 1
1172 1945 1947 1
1173 1945 1946 1
1174 1944 1945 1
1175 1539 1550 1
1176 1539 1542 1
1177 1539 1546 1
1178 1278 1279 1
1179 1279 1284 1
1180 1279 1283 1
1181 1279 1282 1
1182 916 919 1
1183 919 920 1
1184 63 74 1
1185 74 77 1
1186 510 513 1
1187 415 451 1
1188 412 415 1
1189 120 122 1
1190 499 502 1
1191 499 500 1
1192 499 501 1
1193 70 73 1
1194 640 643 1
1195 260 262 1
1196 1231 1234 1
1197 1542 1543 1
1198 2017 2022 1
1199 111 112 1
1200 70 72 1
1201 1528 1531 1
1202 1812 1816 1
1203 1402 1405 1
1204 1812 1817 1
1205 1818 1821 1
1206 1818 1820 1
1207 1818 1819 1
1208 234 235 1
1209 63 70 1
1210 70 71 1
1211 1878 1880 1
1212 1867 1878 1
1213 1878 1881 1
1214 767 769 1
1215 230 231 1
1216 866 902 1
1217 1550 1552 1
1218 1550 1551 1
1219 1550 1553 1
1220 1733 1736 1
1221 2011 2047 1
1222 2006 2011 1
1223 1341 1344 1
1224 206 207 1
1225 206 242 1
1226 206 209 1
1227 66 68 1
1228 1572 1573 1
1229 1569 1572 1
1230 1572 1575 1
1231 1572 1574 1
1232 128 164 1
1233 1986 1988 1
1234 398 400 1
1235 1822 1825 1
1236 161 163 1
1237 63 66 1
1238 66 69 1
1239 66 67 1
1240 84 87 1
1241 84 120 1
1242 89 92 1
1243 1319 1321 1
1244 161 162 1
1245 1823 1828 1
1246 1505 1508 1
1247 1505 1507 1
1248 1498 1505 1
1249 1505 1506 1
1250 1883 1885 1
1251 1613 1616 1
1252 1613 1615 1
1253 60 64 1
1254 1744 1747 1
1255 1747 1750 1
1256 1747 1749 1
1257 1747 1748 1
1258 161 166 1
1259 576 579 1
1260 579 580 1
1261 2031 2042 1
1262 1829 1830 1
1263 1436 1472 1
1264 875 877 1
1265 60 63 1
1266 1446 1449 1
1267 1449 1452 1
1268 1449 1451 1
1269 1449 1450 1
1270 124 160 1
1271 1829 1832 1
1272 1473 1478 1
1273 469 472 1
1274 468 469 1
1275 469 471 1
1276 469 470 1
1277 1982 1985 1
1278 1985 1986 1
1279 1319 1322 1
1280 1542 1545 1
1281 156 158 1
1282 1915 1917 1
1283 1915 1916 1
1284 107 110 1
1285 394 396 1
1286 1833 1836 1
1287 96 97 1
1288 320 322 1
1289 1837 1838 1
1290 131 134 1
1291 156 157 1
1292 156 159 1
1293 780 783 1
1294 780 782 1
1295 780 781 1
1296 361 364 1
1297 1453 1456 1
1298 1115 1120 1
1299 1165 1166 1
1300 1371 1373 1
1301 357 360 1
1302 1371 1374 1
1303 243 248 1
1304 248 284 1
1305 1464 1467 1
1306 1464 1466 1
1307 1457 1464 1
1308 1464 1465 1
1309 1792 1794 1
1310 1792 1793 1
1311 1785 1792 1
1312 1792 1795 1
1313 1235 1271 1
1314 357 359 1
1315 1372 1376 1
1316 575 577 1
1317 55 57 1
1318 2023 2024 1
1319 2023 2026 1
1320 2023 2025 1
1321 1372 1377 1
1322 357 358 1
1323 1074 1079 1
1324 1074 1078 1
1325 1378 1380 1
1326 1378 1379 1
1327 55 56 1
1328 52 55 1
1329 1678 1680 1
1330 353 356 1
1331 1382 1384 1
1332 1382 1385 1
1333 1382 1383 1
1334 49 54 1
1335 370 406 1
1336 1334 1337 1
1337 1337 1340 1
1338 1337 1339 1
1339 1337 1338 1
1340 353 355 1
1341 1774 1777 1
1342 1777 1780 1
1343 1777 1779 1
1344 1777 1778 1
1345 797 799 1
1346 49 53 1
1347 1411 1412 1
1348 353 354 1
1349 1319 1320 1
1350 1386 1388 1
1351 1386 1387 1
1352 49 52 1
1353 1990 2001 1
1354 253 255 1
1355 48 51 1
1356 1329 1330 1
1357 347 352 1
1358 825 861 1
1359 1354 1390 1
1360 689 692 1
1361 689 691 1
1362 689 690 1
1363 48 50 1
1364 1391 1392 1
1365 1355 1391 1
1366 776 781 1
1367 1263 1264 1
1368 1358 1394 1
1369 580 581 1
1370 383 384 1
1371 880 885 1
1372 48 49 1
1373 230 233 1
1374 227 230 1
1375 785 786 1
1376 801 804 1
1377 786 789 1
1378 786 788 1
1379 786 787 1
1380 1108 1110 1
1381 1587 1590 1
1382 787 792 1
1383 787 790 1
1384 763 764 1
1385 760 763 1
1386 763 766 1
1387 43 46 1
1388 1278 1280 1
1389 1108 1109 1
1390 1108 1144 1
1391 776 777 1
1392 790 793 1
1393 342 345 1
1394 465 468 1
1395 1166 1169 1
1396 1166 1168 1
1397 1686 1722 1
1398 793 794 1
1399 793 795 1
1400 411 414 1
1401 1112 1148 1
1402 342 343 1
1403 42 43 1
1404 653 655 1
1405 370 373 1
1406 22 33 1
1407 22 29 1
1408 22 25 1
1409 845 847 1
1410 1976 1981 1
1411 845 848 1
1412 849 852 1
1413 849 851 1
1414 849 850 1
1415 1114 1117 1
1416 767 770 1
1417 760 767 1
1418 767 768 1
1419 130 132 1
1420 1969 1972 1
1421 1969 1971 1
1422 1969 1970 1
1423 1514 1516 1
1424 1478 1514 1
1425 853 855 1
1426 853 854 1
1427 853 856 1
1428 1970 1973 1
1429 1970 2006 1
1430 1965 1970 1
1431 1982 1983 1
1432 1979 1982 1
1433 1982 1984 1
1434 1956 1957 1
1435 1973 1974 1
1436 1974 1975 1
1437 5 41 1
1438 858 860 1
1439 858 859 1
1440 822 858 1
1441 370 372 1
1442 1975 1978 1
1443 1975 1977 1
1444 1975 1976 1
1445 1113 1114 1
1446 1114 1116 1
1447 1114 1115 1
1448 1976 1980 1
1449 1976 1979 1
1450 705 709 1
1451 1231 1233 1
1452 616 618 1
1453 616 617 1
1454 616 652 1
1455 616 619 1
1456 739 741 1
1457 617 653 1
1458 617 620 1
1459 101 105 1
1460 804 807 1
1461 1760 1765 1
1462 1760 1762 1
1463 1354 1356 1
1464 1354 1355 1
1465 1354 1357 1
1466 620 621 1
1467 1355 1358 1
1468 1350 1355 1
1469 621 622 1
1470 394 395 1
1471 622 625 1
1472 622 624 1
1473 622 623 1
1474 623 626 1
1475 623 628 1
1476 623 627 1
1477 320 321 1
1478 1358 1359 1
1479 130 133 1
1480 1359 1360 1
1481 1893 1896 1
1482 1360 1363 1
1483 1360 1362 1
1484 1360 1361 1
1485 1282 1285 1
1486 626 629 1
1487 1361 1364 1
1488 1361 1366 1
1489 1361 1365 1
1490 202 203 1
1491 1235 1236 1
1492 1232 1235 1
1493 29 30 1
1494 1990 1997 1
1495 1987 1990 1
1496 1990 1993 1
1497 1001 1002 1
1498 998 1001 1
1499 629 632 1
1500 629 631 1
1501 629 630 1
1502 1364 1367 1
1503 152 155 1
1504 421 424 1
1505 894 895 1
1506 632 633 1
1507 1367 1370 1
1508 633 634 1
1509 633 636 1
1510 633 635 1
1511 1993 1995 1
1512 634 638 1
1513 634 637 1
1514 634 639 1
1515 1993 1996 1
1516 1370 1371 1
1517 1997 1998 1
1518 637 644 1
1519 637 640 1
1520 1231 1267 1
1521 739 775 1
1522 333 369 1
1523 411 447 1
1524 339 342 1
1525 1729 1731 1
1526 443 446 1
1527 1646 1647 1
1528 1645 1646 1
1529 1647 1650 1
1530 1647 1648 1
1531 1443 1447 1
1532 1236 1237 1
1533 1648 1653 1
1534 1648 1652 1
1535 1648 1651 1
1536 128 129 1
1537 152 154 1
1538 152 153 1
1539 1616 1617 1
1540 1313 1315 1
1541 1313 1349 1
1542 1313 1316 1
1543 202 207 1
1544 166 202 1
1545 582 585 1
1546 581 582 1
1547 582 586 1
1548 148 150 1
1549 875 876 1
1550 872 875 1
1551 875 878 1
1552 335 338 1
1553 148 149 1
1554 439 442 1
1555 1864 1867 1
1556 1867 1874 1
1557 148 151 1
1558 555 562 1
1559 552 555 1
1560 555 558 1
1561 555 566 1
1562 1654 1655 1
1563 1651 1654 1
1564 1654 1657 1
1565 1654 1656 1
1566 439 441 1
1567 534 570 1
1568 534 535 1
1569 534 536 1
1570 1559 1562 1
1571 1559 1561 1
1572 1657 1658 1
1573 334 335 1
1574 743 779 1
1575 1658 1661 1
1576 1658 1660 1
1577 1658 1659 1
1578 694 696 1
1579 1659 1663 1
1580 1659 1662 1
1581 1659 1664 1
1582 834 835 1
1583 333 334 1
1584 435 438 1
1585 330 333 1
1586 435 437 1
1587 411 413 1
1588 2027 2030 1
1589 2027 2029 1
1590 2027 2028 1
1591 2026 2027 1
1592 329 332 1
1593 1887 1889 1
1594 1887 1888 1
1595 1887 1923 1
1596 329 331 1
1597 1665 1666 1
1598 1084 1085 1
1599 1083 1084 1
1600 1084 1087 1
1601 1084 1086 1
1602 432 435 1
1603 435 436 1
1604 476 478 1
1605 329 330 1
1606 1665 1668 1
1607 2028 2032 1
1608 2028 2031 1
1609 2028 2033 1
1610 429 433 1
1611 429 432 1
1612 432 439 1
1613 432 443 1
1614 989 1025 1
1615 402 404 1
1616 428 431 1
1617 279 282 1
1618 535 571 1
1619 535 538 1
1620 1662 1673 1
1621 1673 1676 1
1622 1673 1675 1
1623 1673 1674 1
1624 312 314 1
1625 312 313 1
1626 862 864 1
1627 1112 1113 1
1628 1864 1869 1
1629 429 434 1
1630 428 429 1
1631 1300 1303 1
1632 427 428 1
1633 1443 1448 1
1634 1237 1240 1
1635 1237 1239 1
1636 1237 1238 1
1637 1678 1683 1
1638 540 542 1
1639 539 540 1
1640 540 541 1
1641 1231 1232 1
1642 903 939 1
1643 674 676 1
1644 862 865 1
1645 1309 1310 1
1646 1309 1311 1
1647 279 281 1
1648 1136 1139 1
1649 2006 2007 1
1650 743 744 1
1651 740 743 1
1652 1809 1810 1
1653 14 16 1
1654 14 15 1
1655 903 905 1
1656 1986 1989 1
1657 862 898 1
1658 1109 1112 1
1659 219 222 1
1660 935 938 1
1661 11 14 1
1662 866 867 1
1663 1919 1921 1
1664 1919 1920 1
1665 1919 1922 1
1666 1736 1739 1
1667 1736 1738 1
1668 1736 1737 1
1669 2 38 1
1670 2 5 1
1671 1 2 1
1672 1810 1811 1
1673 640 642 1
1674 640 641 1
1675 1259 1261 1
1676 7 9 1
1677 1706 1707 1
1678 1085 1088 1
1679 1088 1091 1
1680 1088 1099 1
1681 1088 1095 1
1682 1822 1823 1
1683 1823 1827 1
1684 1823 1826 1
1685 7 10 1
1686 243 245 1
1687 1796 1799 1
1688 1796 1798 1
1689 1796 1797 1
1690 1785 1796 1
1691 1493 1494 1
1692 1928 1931 1
1693 1928 1930 1
1694 1928 1929 1
1695 1928 1964 1
1696 243 244 1
1697 1125 1127 1
1698 1929 1932 1
1699 1924 1929 1
1700 1929 1965 1
1701 207 243 1
1702 6 7 1
1703 867 868 1
1704 868 871 1
1705 868 870 1
1706 868 869 1
1707 1932 1933 1
1708 1932 1968 1
1709 1933 1934 1
1710 1740 1743 1
1711 541 544 1
1712 541 545 1
1713 541 546 1
1714 1934 1937 1
1715 1934 1936 1
1716 1934 1935 1
1717 1811 1812 1
1718 238 241 1
1719 1935 1940 1
1720 1935 1938 1
1721 5 6 1
1722 670 673 1
1723 670 672 1
1724 670 671 1
1725 238 240 1
1726 869 874 1
1727 869 873 1
1728 869 872 1
1729 1938 1941 1
1730 1900 1901 1
1731 238 239 1
1732 1688 1690 1
1733 227 238 1
1734 1304 1307 1
1735 1304 1306 1
1736 1304 1305 1
1737 1941 1942 1
1738 1941 1944 1
1739 1941 1943 1
1740 1645 1681 1
1741 907 943 1
1742 1682 1718 1
1743 1238 1243 1
1744 1238 1242 1
1745 1238 1241 1
1746 1 3 1
1747 1 37 1
1748 1477 1513 1
1749 1618 1622 1
1750 1617 1618 1
1751 1618 1623 1
1752 1371 1372 1
1753 1617 1620 1
1754 744 745 1
1755 1946 1949 1
1756 1946 1951 1
1757 1946 1950 1
1758 1765 1768 1
1759 551 554 1
1760 227 234 1
1761 1091 1092 1
1762 1883 1888 1
1763 1003 1007 1
1764 571 573 1
1765 424 427 1
1766 1952 1954 1
1767 1952 1953 1
1768 1949 1952 1
1769 1952 1955 1
1770 1897 1900 1
1771 424 426 1
1772 219 220 1
1773 216 219 1
1774 424 425 1
1775 1285 1286 1
1776 1285 1288 1
1777 1285 1287 1
1778 1949 1956 1
1779 1956 1959 1
1780 1956 1958 1
1781 1965 1967 1
1782 1965 1966 1
1783 657 693 1
1784 1494 1496 1
1785 538 539 1
1786 538 574 1
1787 130 131 1
1788 129 130 1
1789 1960 1962 1
1790 1960 1961 1
1791 1949 1960 1
1792 1960 1963 1
1793 552 556 1
1794 402 405 1
1795 476 477 1
1796 1080 1083 1
1797 1080 1082 1
1798 1300 1302 1
1799 1126 1129 1
1800 1129 1136 1
1801 1739 1740 1
1802 1095 1098 1
1803 1095 1097 1
1804 1095 1096 1
1805 1085 1090 1
1806 1085 1089 1
1807 1320 1323 1
1808 1563 1564 1
1809 1905 1909 1
1810 1564 1565 1
1811 1546 1547 1
1812 1565 1567 1
1813 1565 1566 1
1814 1566 1571 1
1815 1566 1570 1
1816 1566 1569 1
1817 1719 1720 1
1818 1683 1719 1
1819 1719 1721 1
1820 38 39 1
1821 500 504 1
1822 826 827 1
1823 825 826 1
1824 25 26 1
1825 1423 1426 1
1826 961 963 1
1827 1091 1093 1
1828 828 833 1
1829 745 748 1
1830 745 747 1
1831 745 746 1
1832 1091 1094 1
1833 1852 1854 1
1834 1852 1853 1
1835 1852 1855 1
1836 981 982 1
1837 443 445 1
1838 1987 1991 1
1839 1811 1814 1
1840 1811 1813 1
1841 407 412 1
1842 411 412 1
1843 1575 1576 1
1844 1576 1579 1
1845 1576 1577 1
1846 1099 1100 1
1847 1546 1549 1
1848 1577 1580 1
1849 1577 1582 1
1850 1577 1581 1
1851 1099 1101 1
1852 1099 1102 1
1853 1911 1913 1
1854 212 214 1
1855 1587 1589 1
1856 1580 1583 1
1857 1580 1591 1
1858 1580 1587 1
1859 827 828 1
1860 828 832 1
1861 828 831 1
1862 1104 1105 1
1863 1104 1109 1
1864 1104 1106 1
1865 1700 1704 1
1866 1700 1703 1
1867 1741 1744 1
1868 1741 1746 1
1869 1740 1741 1
1870 1683 1686 1
1871 909 912 1
1872 909 911 1
1873 909 910 1
1874 1259 1260 1
1875 1740 1742 1
1876 1821 1822 1
1877 910 915 1
1878 910 914 1
1879 910 913 1
1880 1583 1585 1
1881 1583 1584 1
1882 1583 1586 1
1883 443 444 1
1884 1268 1269 1
1885 1986 1987 1
1886 1987 1992 1
1887 913 916 1
1888 878 879 1
1889 657 659 1
1890 657 660 1
1891 1904 1907 1
1892 1587 1588 1
1893 1822 1824 1
1894 1900 1902 1
1895 916 917 1
1896 916 918 1
1897 38 40 1
1898 402 403 1
1899 510 511 1
1900 510 512 1
1901 544 547 1
1902 1125 1126 1
1903 284 286 1
1904 920 922 1
1905 920 921 1
1906 644 645 1
1907 38 43 1
1908 1688 1691 1
1909 739 742 1
1910 921 925 1
1911 1662 1665 1
1912 1853 1856 1
1913 1853 1858 1
1914 986 989 1
1915 981 986 1
1916 33 36 1
1917 831 834 1
1918 33 35 1
1919 25 27 1
1920 1477 1480 1
1921 989 990 1
1922 746 751 1
1923 746 750 1
1924 879 882 1
1925 879 881 1
1926 879 880 1
1927 990 991 1
1928 991 993 1
1929 991 992 1
1930 992 995 1
1931 992 996 1
1932 1924 1926 1
1933 1924 1925 1
1934 1888 1924 1
1935 29 32 1
1936 935 937 1
1937 142 146 1
1938 995 998 1
1939 998 1000 1
1940 503 506 1
1941 1124 1125 1
1942 1125 1128 1
1943 1600 1601 1
1944 1826 1837 1
1945 1826 1829 1
1946 1826 1833 1
1947 1002 1003 1
1948 1002 1005 1
1949 1002 1004 1
1950 1003 1006 1
1951 500 503 1
1952 834 836 1
1953 1864 1868 1
1954 18 21 1
1955 1903 1904 1
1956 1900 1903 1
1957 547 548 1
1958 547 549 1
1959 673 674 1
1960 1695 1696 1
1961 1695 1698 1
1962 752 755 1
1963 752 754 1
1964 776 778 1
1965 740 776 1
1966 562 564 1
1967 284 285 1
1968 698 700 1
1969 1600 1603 1
1970 1600 1602 1
1971 1452 1453 1
1972 1591 1593 1
1973 1334 1341 1
1974 698 701 1
1975 1829 1831 1
1976 439 440 1
1977 1703 1706 1
1978 1706 1709 1
1979 1706 1708 1
1980 1993 1994 1
1981 316 319 1
1982 551 552 1
1983 739 740 1
1984 316 318 1
1985 1232 1268 1
1986 1710 1712 1
1987 1710 1711 1
1988 1703 1710 1
1989 316 317 1
1990 1341 1343 1
1991 1288 1289 1
1992 1703 1714 1
1993 1714 1717 1
1994 1714 1716 1
1995 1714 1715 1
1996 566 567 1
1997 575 576 1
1998 575 578 1
1999 653 654 1
2000 571 576 1
2001 1874 1876 1
2002 1874 1875 1
2003 1341 1342 1
2004 1477 1479 1
2005 1477 1478 1
2006 120 121 1
2007 566 568 1
2008 581 584 1
2009 581 583 1
2010 1833 1835 1
2011 1833 1834 1
2012 1546 1548 1
2013 1781 1783 1
2014 1904 1905 1
2015 1904 1906 1
2016 585 588 1
2017 1136 1137 1
2018 383 385 1
2019 1682 1683 1
2020 1453 1454 1
2021 398 399 1
2022 398 401 1
2023 1443 1446 1
2024 1442 1443 1
2025 407 409 1
2026 1442 1445 1
2027 407 408 1
2028 890 891 1
2029 383 386 1
2030 517 520 1
2031 822 825 1
2032 1768 1769 1
2033 1769 1770 1
2034 839 843 1
2035 1770 1773 1
2036 1770 1771 1
2037 827 830 1
2038 827 829 1
2039 1771 1774 1
2040 1771 1776 1
2041 1771 1775 1
2042 1905 1910 1
2043 839 844 1
2044 470 475 1
2045 562 563 1
2046 562 565 1
2047 1454 1457 1
2048 1454 1459 1
2049 1780 1781 1
2050 566 569 1
2051 1781 1782 1
2052 1781 1784 1
2053 1782 1787 1
2054 1782 1786 1
2055 1782 1785 1
2056 571 572 1
2057 845 846 1
<@TRIPOS>
