@<TRIPOS>MOLECULE
*****
 41 40 0 0 0
SMALL
GASTEIGER

@<TRIPOS>ATOM
      1 C1          1.3990   -1.2160    1.1840 C.3     1  LIG1       -0.0484
      2 C2          1.3270   -2.1110    2.4460 C.3     1  LIG1        0.0803
      3 H1          2.1870   -0.6140    1.6720 H       1  LIG1        0.0241
      4 H2          1.0800   -0.2260    0.9650 H       1  LIG1        0.0241
      5 C3          0.5800   -1.9600    3.7600 C.2     1  LIG1        0.3142
      6 O1          1.2790   -1.7190    4.9060 O.3     1  LIG1       -0.4619
      7 C4          0.7780   -2.1040    6.1400 C.3     1  LIG1        0.1161
      8 C5          1.7860   -1.8600    7.2610 C.3     1  LIG1        0.0890
      9 H3          0.5900   -3.2000    6.0950 H       1  LIG1        0.0721
     10 H4         -0.1790   -1.5850    6.3680 H       1  LIG1        0.0721
     11 O2          1.3890   -2.6000    8.3960 O.3     1  LIG1       -0.3240
     12 H5          1.9260   -0.7690    7.4300 H       1  LIG1        0.0598
     13 H6          2.7720   -2.2660    6.9510 H       1  LIG1        0.0598
     14 P1          0.9320   -1.5660    9.7320 P.3     1  LIG1        0.2128
     15 O3          2.1270   -0.3410   10.0280 O.3     1  LIG1       -0.4373
     16 O4         -0.4160   -0.8940    9.3520 O.2     1  LIG1       -0.5172
     17 O5          0.6900   -2.5980   11.1340 O.3     1  LIG1       -0.3221
     18 C6         -0.0240   -1.9370   12.1560 C.3     1  LIG1        0.0947
     19 C7          0.9520   -1.2570   13.1420 C.3     1  LIG1       -0.0064
     20 H7         -0.5980   -2.7240   12.6810 H       1  LIG1        0.0618
     21 H8         -0.7810   -1.2310   11.7570 H       1  LIG1        0.0618
     22 N1          0.3290   -0.6500   14.3600 N.4     1  LIG1        0.2385
     23 H9          1.5040   -0.4750   12.5750 H       1  LIG1        0.0838
     24 H10         1.7000   -2.0220   13.4540 H       1  LIG1        0.0838
     25 C8          1.4040    0.0030   15.1460 C.3     1  LIG1       -0.0417
     26 H11         1.9040    0.8030   14.5550 H       1  LIG1        0.0778
     27 H12         2.1830   -0.7330   15.4510 H       1  LIG1        0.0778
     28 H13         1.0030    0.4720   16.0730 H       1  LIG1        0.0778
     29 C9         -0.3040   -1.6820   15.2170 C.3     1  LIG1       -0.0417
     30 H14        -1.1800   -2.1520   14.7220 H       1  LIG1        0.0778
     31 H15        -0.6820   -1.2380   16.1660 H       1  LIG1        0.0778
     32 H16         0.4220   -2.4830   15.4820 H       1  LIG1        0.0778
     33 C10        -0.6770    0.3790   14.0040 C.3     1  LIG1       -0.0417
     34 H17        -0.2370    1.1540   13.3380 H       1  LIG1        0.0778
     35 H18        -1.0670    0.8880   14.9140 H       1  LIG1        0.0778
     36 H19        -1.5570   -0.0670   13.4940 H       1  LIG1        0.0778
     37 H20         1.7190   -1.6270    0.3650 H       1  LIG1        0.0241
     38 C11         0.2250   -2.6890    1.7860 C.3     1  LIG1       -0.0354
     39 H21         0.7860   -2.8640    0.9060 H       1  LIG1        0.0276
     40 H22        -0.3090   -2.1800    1.2280 H       1  LIG1        0.0276
     41 O6         -0.6550   -2.2040    4.0240 O.2     1  LIG1       -0.2502
@<TRIPOS>BOND
     1     1    37    1
     2     1     4    1
     3     1     3    1
     4     1     2    1
     5     2    38    1
     6     2     5    1
     7     5    41    2
     8     5     6    1
     9     6     7    1
    10     7     9    1
    11     7    10    1
    12     7     8    1
    13     8    13    1
    14     8    12    1
    15     8    11    1
    16    11    14    1
    17    14    16    2
    18    14    15    1
    19    14    17    1
    20    17    18    1
    21    18    21    1
    22    18    20    1
    23    18    19    1
    24    19    23    1
    25    19    24    1
    26    19    22    1
    27    22    33    1
    28    22    25    1
    29    22    29    1
    30    25    26    1
    31    25    27    1
    32    25    28    1
    33    29    30    1
    34    29    32    1
    35    29    31    1
    36    33    34    1
    37    33    36    1
    38    33    35    1
    39    38    39    1
    40    38    40    1
