@<TRIPOS>MOLECULE
*****
 1800 2300 0 0 0
SMALL
NO_CHARGES

@<TRIPOS>ATOM
     1 O       1.191    0.688    6.322 O
     2 Si      1.191    0.688    0.000 Si
     3 O       1.191    2.063    0.486 O
     4 Si      1.191    3.439    0.973 Si
     5 O       2.382    0.000    0.486 O
     6 O       0.000    0.000    0.486 O
     7 O       1.191    3.439    2.431 O
     8 Si      1.191    3.439    3.890 Si
     9 O       1.191    2.063    4.377 O
    10 Si      1.191    0.688    4.863 Si
    11 O       2.382    0.000    4.377 O
    12 O       0.000    0.000    4.377 O
    13 Si      1.191    0.688    7.781 Si
    14 O       2.382    0.000    8.267 O
    15 O       0.000    0.000    8.267 O
    16 O       1.191    2.063    8.267 O
    17 Si      1.191    3.439    8.753 Si
    18 O       1.191    3.439   10.212 O
    19 O       5.956    0.688    6.322 O
    20 Si      5.956    0.688    0.000 Si
    21 O       5.956    2.063    0.486 O
    22 Si      5.956    3.439    0.973 Si
    23 O       7.147    0.000    0.486 O
    24 O       4.765    0.000    0.486 O
    25 O       5.956    3.439    2.431 O
    26 Si      5.956    3.439    3.890 Si
    27 O       5.956    2.063    4.377 O
    28 Si      5.956    0.688    4.863 Si
    29 O       7.147    0.000    4.377 O
    30 O       4.765    0.000    4.377 O
    31 Si      5.956    0.688    7.781 Si
    32 O       7.147    0.000    8.267 O
    33 O       4.765    0.000    8.267 O
    34 O       5.956    2.063    8.267 O
    35 Si      5.956    3.439    8.753 Si
    36 O       5.956    3.439   10.212 O
    37 O       3.573    4.814    6.322 O
    38 Si      3.573    4.814    0.000 Si
    39 O       3.573    6.189    0.486 O
    40 Si      3.573    7.565    0.973 Si
    41 O       4.765    4.126    0.486 O
    42 O       2.382    4.126    0.486 O
    43 O       3.573    7.565    2.431 O
    44 Si      3.573    7.565    3.890 Si
    45 O       3.573    6.189    4.377 O
    46 Si      3.573    4.814    4.863 Si
    47 O       4.765    4.126    4.377 O
    48 O       2.382    4.126    4.377 O
    49 Si      3.573    4.814    7.781 Si
    50 O       4.765    4.126    8.267 O
    51 O       2.382    4.126    8.267 O
    52 O       3.573    6.189    8.267 O
    53 Si      3.573    7.565    8.753 Si
    54 O       3.573    7.565   10.212 O
    55 O       8.338    4.814    6.322 O
    56 Si      8.338    4.814    0.000 Si
    57 O       8.338    6.189    0.486 O
    58 Si      8.338    7.565    0.973 Si
    59 O       9.529    4.126    0.486 O
    60 O       7.147    4.126    0.486 O
    61 O       8.338    7.565    2.431 O
    62 Si      8.338    7.565    3.890 Si
    63 O       8.338    6.189    4.377 O
    64 Si      8.338    4.814    4.863 Si
    65 O       9.529    4.126    4.377 O
    66 O       7.147    4.126    4.377 O
    67 Si      8.338    4.814    7.781 Si
    68 O       9.529    4.126    8.267 O
    69 O       7.147    4.126    8.267 O
    70 O       8.338    6.189    8.267 O
    71 Si      8.338    7.565    8.753 Si
    72 O       8.338    7.565   10.212 O
    73 O      10.720    0.688    6.322 O
    74 Si     10.720    0.688    0.000 Si
    75 O      10.720    2.063    0.486 O
    76 Si     10.720    3.439    0.973 Si
    77 O      11.912    0.000    0.486 O
    78 O       9.529    0.000    0.486 O
    79 O      10.720    3.439    2.431 O
    80 Si     10.720    3.439    3.890 Si
    81 O      10.720    2.063    4.377 O
    82 Si     10.720    0.688    4.863 Si
    83 O      11.912    0.000    4.377 O
    84 O       9.529    0.000    4.377 O
    85 Si     10.720    0.688    7.781 Si
    86 O      11.912    0.000    8.267 O
    87 O       9.529    0.000    8.267 O
    88 O      10.720    2.063    8.267 O
    89 Si     10.720    3.439    8.753 Si
    90 O      10.720    3.439   10.212 O
    91 O      15.485    0.688    6.322 O
    92 Si     15.485    0.688    0.000 Si
    93 O      15.485    2.063    0.486 O
    94 Si     15.485    3.439    0.973 Si
    95 O      16.676    0.000    0.486 O
    96 O      14.294    0.000    0.486 O
    97 O      15.485    3.439    2.431 O
    98 Si     15.485    3.439    3.890 Si
    99 O      15.485    2.063    4.377 O
   100 Si     15.485    0.688    4.863 Si
   101 O      16.676    0.000    4.377 O
   102 O      14.294    0.000    4.377 O
   103 Si     15.485    0.688    7.781 Si
   104 O      16.676    0.000    8.267 O
   105 O      14.294    0.000    8.267 O
   106 O      15.485    2.063    8.267 O
   107 Si     15.485    3.439    8.753 Si
   108 O      15.485    3.439   10.212 O
   109 O      13.103    4.814    6.322 O
   110 Si     13.103    4.814    0.000 Si
   111 O      13.103    6.189    0.486 O
   112 Si     13.103    7.565    0.973 Si
   113 O      14.294    4.126    0.486 O
   114 O      11.912    4.126    0.486 O
   115 O      13.103    7.565    2.431 O
   116 Si     13.103    7.565    3.890 Si
   117 O      13.103    6.189    4.377 O
   118 Si     13.103    4.814    4.863 Si
   119 O      14.294    4.126    4.377 O
   120 O      11.912    4.126    4.377 O
   121 Si     13.103    4.814    7.781 Si
   122 O      14.294    4.126    8.267 O
   123 O      11.912    4.126    8.267 O
   124 O      13.103    6.189    8.267 O
   125 Si     13.103    7.565    8.753 Si
   126 O      13.103    7.565   10.212 O
   127 O      17.867    4.814    6.322 O
   128 Si     17.867    4.814    0.000 Si
   129 O      17.867    6.189    0.486 O
   130 Si     17.867    7.565    0.973 Si
   131 O      19.058    4.126    0.486 O
   132 O      16.676    4.126    0.486 O
   133 O      17.867    7.565    2.431 O
   134 Si     17.867    7.565    3.890 Si
   135 O      17.867    6.189    4.377 O
   136 Si     17.867    4.814    4.863 Si
   137 O      19.058    4.126    4.377 O
   138 O      16.676    4.126    4.377 O
   139 Si     17.867    4.814    7.781 Si
   140 O      19.058    4.126    8.267 O
   141 O      16.676    4.126    8.267 O
   142 O      17.867    6.189    8.267 O
   143 Si     17.867    7.565    8.753 Si
   144 O      17.867    7.565   10.212 O
   145 O      20.250    0.688    6.322 O
   146 Si     20.250    0.688    0.000 Si
   147 O      20.250    2.063    0.486 O
   148 Si     20.250    3.439    0.973 Si
   149 O      21.441    0.000    0.486 O
   150 O      19.058    0.000    0.486 O
   151 O      20.250    3.439    2.431 O
   152 Si     20.250    3.439    3.890 Si
   153 O      20.250    2.063    4.377 O
   154 Si     20.250    0.688    4.863 Si
   155 O      21.441    0.000    4.377 O
   156 O      19.058    0.000    4.377 O
   157 Si     20.250    0.688    7.781 Si
   158 O      21.441    0.000    8.267 O
   159 O      19.058    0.000    8.267 O
   160 O      20.250    2.063    8.267 O
   161 Si     20.250    3.439    8.753 Si
   162 O      20.250    3.439   10.212 O
   163 O      25.014    0.688    6.322 O
   164 Si     25.014    0.688    0.000 Si
   165 O      25.014    2.063    0.486 O
   166 Si     25.014    3.439    0.973 Si
   167 O      26.205    0.000    0.486 O
   168 O      23.823    0.000    0.486 O
   169 O      25.014    3.439    2.431 O
   170 Si     25.014    3.439    3.890 Si
   171 O      25.014    2.063    4.377 O
   172 Si     25.014    0.688    4.863 Si
   173 O      26.205    0.000    4.377 O
   174 O      23.823    0.000    4.377 O
   175 Si     25.014    0.688    7.781 Si
   176 O      26.205    0.000    8.267 O
   177 O      23.823    0.000    8.267 O
   178 O      25.014    2.063    8.267 O
   179 Si     25.014    3.439    8.753 Si
   180 O      25.014    3.439   10.212 O
   181 O      22.632    4.814    6.322 O
   182 Si     22.632    4.814    0.000 Si
   183 O      22.632    6.189    0.486 O
   184 Si     22.632    7.565    0.973 Si
   185 O      23.823    4.126    0.486 O
   186 O      21.441    4.126    0.486 O
   187 O      22.632    7.565    2.431 O
   188 Si     22.632    7.565    3.890 Si
   189 O      22.632    6.189    4.377 O
   190 Si     22.632    4.814    4.863 Si
   191 O      23.823    4.126    4.377 O
   192 O      21.441    4.126    4.377 O
   193 Si     22.632    4.814    7.781 Si
   194 O      23.823    4.126    8.267 O
   195 O      21.441    4.126    8.267 O
   196 O      22.632    6.189    8.267 O
   197 Si     22.632    7.565    8.753 Si
   198 O      22.632    7.565   10.212 O
   199 O      27.396    4.814    6.322 O
   200 Si     27.396    4.814    0.000 Si
   201 O      27.396    6.189    0.486 O
   202 Si     27.396    7.565    0.973 Si
   203 O      28.587    4.126    0.486 O
   204 O      26.205    4.126    0.486 O
   205 O      27.396    7.565    2.431 O
   206 Si     27.396    7.565    3.890 Si
   207 O      27.396    6.189    4.377 O
   208 Si     27.396    4.814    4.863 Si
   209 O      28.587    4.126    4.377 O
   210 O      26.205    4.126    4.377 O
   211 Si     27.396    4.814    7.781 Si
   212 O      28.587    4.126    8.267 O
   213 O      26.205    4.126    8.267 O
   214 O      27.396    6.189    8.267 O
   215 Si     27.396    7.565    8.753 Si
   216 O      27.396    7.565   10.212 O
   217 O      29.779    0.688    6.322 O
   218 Si     29.779    0.688    0.000 Si
   219 O      29.779    2.063    0.486 O
   220 Si     29.779    3.439    0.973 Si
   221 O      30.970    0.000    0.486 O
   222 O      28.587    0.000    0.486 O
   223 O      29.779    3.439    2.431 O
   224 Si     29.779    3.439    3.890 Si
   225 O      29.779    2.063    4.377 O
   226 Si     29.779    0.688    4.863 Si
   227 O      30.970    0.000    4.377 O
   228 O      28.587    0.000    4.377 O
   229 Si     29.779    0.688    7.781 Si
   230 O      30.970    0.000    8.267 O
   231 O      28.587    0.000    8.267 O
   232 O      29.779    2.063    8.267 O
   233 Si     29.779    3.439    8.753 Si
   234 O      29.779    3.439   10.212 O
   235 O      34.543    0.688    6.322 O
   236 Si     34.543    0.688    0.000 Si
   237 O      34.543    2.063    0.486 O
   238 Si     34.543    3.439    0.973 Si
   239 O      35.734    0.000    0.486 O
   240 O      33.352    0.000    0.486 O
   241 O      34.543    3.439    2.431 O
   242 Si     34.543    3.439    3.890 Si
   243 O      34.543    2.063    4.377 O
   244 Si     34.543    0.688    4.863 Si
   245 O      35.734    0.000    4.377 O
   246 O      33.352    0.000    4.377 O
   247 Si     34.543    0.688    7.781 Si
   248 O      35.734    0.000    8.267 O
   249 O      33.352    0.000    8.267 O
   250 O      34.543    2.063    8.267 O
   251 Si     34.543    3.439    8.753 Si
   252 O      34.543    3.439   10.212 O
   253 O      32.161    4.814    6.322 O
   254 Si     32.161    4.814    0.000 Si
   255 O      32.161    6.189    0.486 O
   256 Si     32.161    7.565    0.973 Si
   257 O      33.352    4.126    0.486 O
   258 O      30.970    4.126    0.486 O
   259 O      32.161    7.565    2.431 O
   260 Si     32.161    7.565    3.890 Si
   261 O      32.161    6.189    4.377 O
   262 Si     32.161    4.814    4.863 Si
   263 O      33.352    4.126    4.377 O
   264 O      30.970    4.126    4.377 O
   265 Si     32.161    4.814    7.781 Si
   266 O      33.352    4.126    8.267 O
   267 O      30.970    4.126    8.267 O
   268 O      32.161    6.189    8.267 O
   269 Si     32.161    7.565    8.753 Si
   270 O      32.161    7.565   10.212 O
   271 O      36.925    4.814    6.322 O
   272 Si     36.925    4.814    0.000 Si
   273 O      36.925    6.189    0.486 O
   274 Si     36.925    7.565    0.973 Si
   275 O      38.117    4.126    0.486 O
   276 O      35.734    4.126    0.486 O
   277 O      36.925    7.565    2.431 O
   278 Si     36.925    7.565    3.890 Si
   279 O      36.925    6.189    4.377 O
   280 Si     36.925    4.814    4.863 Si
   281 O      38.117    4.126    4.377 O
   282 O      35.734    4.126    4.377 O
   283 Si     36.925    4.814    7.781 Si
   284 O      38.117    4.126    8.267 O
   285 O      35.734    4.126    8.267 O
   286 O      36.925    6.189    8.267 O
   287 Si     36.925    7.565    8.753 Si
   288 O      36.925    7.565   10.212 O
   289 O      39.308    0.688    6.322 O
   290 Si     39.308    0.688    0.000 Si
   291 O      39.308    2.063    0.486 O
   292 Si     39.308    3.439    0.973 Si
   293 O      40.499    0.000    0.486 O
   294 O      38.117    0.000    0.486 O
   295 O      39.308    3.439    2.431 O
   296 Si     39.308    3.439    3.890 Si
   297 O      39.308    2.063    4.377 O
   298 Si     39.308    0.688    4.863 Si
   299 O      40.499    0.000    4.377 O
   300 O      38.117    0.000    4.377 O
   301 Si     39.308    0.688    7.781 Si
   302 O      40.499    0.000    8.267 O
   303 O      38.117    0.000    8.267 O
   304 O      39.308    2.063    8.267 O
   305 Si     39.308    3.439    8.753 Si
   306 O      39.308    3.439   10.212 O
   307 O      44.072    0.688    6.322 O
   308 Si     44.072    0.688    0.000 Si
   309 O      44.072    2.063    0.486 O
   310 Si     44.072    3.439    0.973 Si
   311 O      45.264    0.000    0.486 O
   312 O      42.881    0.000    0.486 O
   313 O      44.072    3.439    2.431 O
   314 Si     44.072    3.439    3.890 Si
   315 O      44.072    2.063    4.377 O
   316 Si     44.072    0.688    4.863 Si
   317 O      45.264    0.000    4.377 O
   318 O      42.881    0.000    4.377 O
   319 Si     44.072    0.688    7.781 Si
   320 O      45.264    0.000    8.267 O
   321 O      42.881    0.000    8.267 O
   322 O      44.072    2.063    8.267 O
   323 Si     44.072    3.439    8.753 Si
   324 O      44.072    3.439   10.212 O
   325 O      41.690    4.814    6.322 O
   326 Si     41.690    4.814    0.000 Si
   327 O      41.690    6.189    0.486 O
   328 Si     41.690    7.565    0.973 Si
   329 O      42.881    4.126    0.486 O
   330 O      40.499    4.126    0.486 O
   331 O      41.690    7.565    2.431 O
   332 Si     41.690    7.565    3.890 Si
   333 O      41.690    6.189    4.377 O
   334 Si     41.690    4.814    4.863 Si
   335 O      42.881    4.126    4.377 O
   336 O      40.499    4.126    4.377 O
   337 Si     41.690    4.814    7.781 Si
   338 O      42.881    4.126    8.267 O
   339 O      40.499    4.126    8.267 O
   340 O      41.690    6.189    8.267 O
   341 Si     41.690    7.565    8.753 Si
   342 O      41.690    7.565   10.212 O
   343 O      46.455    4.814    6.322 O
   344 Si     46.455    4.814    0.000 Si
   345 O      46.455    6.189    0.486 O
   346 Si     46.455    7.565    0.973 Si
   347 O      -0.043    4.126    0.486 O
   348 O      45.264    4.126    0.486 O
   349 O      46.455    7.565    2.431 O
   350 Si     46.455    7.565    3.890 Si
   351 O      46.455    6.189    4.377 O
   352 Si     46.455    4.814    4.863 Si
   353 O      -0.043    4.126    4.377 O
   354 O      45.264    4.126    4.377 O
   355 Si     46.455    4.814    7.781 Si
   356 O      -0.043    4.126    8.267 O
   357 O      45.264    4.126    8.267 O
   358 O      46.455    6.189    8.267 O
   359 Si     46.455    7.565    8.753 Si
   360 O      46.455    7.565   10.212 O
   361 O       1.191    8.940    6.322 O
   362 Si      1.191    8.940    0.000 Si
   363 O       1.191   10.316    0.486 O
   364 Si      1.191   11.691    0.973 Si
   365 O       2.382    8.253    0.486 O
   366 O       0.000    8.253    0.486 O
   367 O       1.191   11.691    2.431 O
   368 Si      1.191   11.691    3.890 Si
   369 O       1.191   10.316    4.377 O
   370 Si      1.191    8.940    4.863 Si
   371 O       2.382    8.253    4.377 O
   372 O       0.000    8.253    4.377 O
   373 Si      1.191    8.940    7.781 Si
   374 O       2.382    8.253    8.267 O
   375 O       0.000    8.253    8.267 O
   376 O       1.191   10.316    8.267 O
   377 Si      1.191   11.691    8.753 Si
   378 O       1.191   11.691   10.212 O
   379 O       5.956    8.940    6.322 O
   380 Si      5.956    8.940    0.000 Si
   381 O       5.956   10.316    0.486 O
   382 Si      5.956   11.691    0.973 Si
   383 O       7.147    8.253    0.486 O
   384 O       4.765    8.253    0.486 O
   385 O       5.956   11.691    2.431 O
   386 Si      5.956   11.691    3.890 Si
   387 O       5.956   10.316    4.377 O
   388 Si      5.956    8.940    4.863 Si
   389 O       7.147    8.253    4.377 O
   390 O       4.765    8.253    4.377 O
   391 Si      5.956    8.940    7.781 Si
   392 O       7.147    8.253    8.267 O
   393 O       4.765    8.253    8.267 O
   394 O       5.956   10.316    8.267 O
   395 Si      5.956   11.691    8.753 Si
   396 O       5.956   11.691   10.212 O
   397 O       3.573   13.066    6.322 O
   398 Si      3.573   13.066    0.000 Si
   399 O       3.573   14.442    0.486 O
   400 Si      3.573   15.817    0.973 Si
   401 O       4.765   12.379    0.486 O
   402 O       2.382   12.379    0.486 O
   403 O       3.573   15.817    2.431 O
   404 Si      3.573   15.817    3.890 Si
   405 O       3.573   14.442    4.377 O
   406 Si      3.573   13.066    4.863 Si
   407 O       4.765   12.379    4.377 O
   408 O       2.382   12.379    4.377 O
   409 Si      3.573   13.066    7.781 Si
   410 O       4.765   12.379    8.267 O
   411 O       2.382   12.379    8.267 O
   412 O       3.573   14.442    8.267 O
   413 Si      3.573   15.817    8.753 Si
   414 O       3.573   15.817   10.212 O
   415 O       8.338   13.066    6.322 O
   416 Si      8.338   13.066    0.000 Si
   417 O       8.338   14.442    0.486 O
   418 Si      8.338   15.817    0.973 Si
   419 O       9.529   12.379    0.486 O
   420 O       7.147   12.379    0.486 O
   421 O       8.338   15.817    2.431 O
   422 Si      8.338   15.817    3.890 Si
   423 O       8.338   14.442    4.377 O
   424 Si      8.338   13.066    4.863 Si
   425 O       9.529   12.379    4.377 O
   426 O       7.147   12.379    4.377 O
   427 Si      8.338   13.066    7.781 Si
   428 O       9.529   12.379    8.267 O
   429 O       7.147   12.379    8.267 O
   430 O       8.338   14.442    8.267 O
   431 Si      8.338   15.817    8.753 Si
   432 O       8.338   15.817   10.212 O
   433 O      10.720    8.940    6.322 O
   434 Si     10.720    8.940    0.000 Si
   435 O      10.720   10.316    0.486 O
   436 Si     10.720   11.691    0.973 Si
   437 O      11.912    8.253    0.486 O
   438 O       9.529    8.253    0.486 O
   439 O      10.720   11.691    2.431 O
   440 Si     10.720   11.691    3.890 Si
   441 O      10.720   10.316    4.377 O
   442 Si     10.720    8.940    4.863 Si
   443 O      11.912    8.253    4.377 O
   444 O       9.529    8.253    4.377 O
   445 Si     10.720    8.940    7.781 Si
   446 O      11.912    8.253    8.267 O
   447 O       9.529    8.253    8.267 O
   448 O      10.720   10.316    8.267 O
   449 Si     10.720   11.691    8.753 Si
   450 O      10.720   11.691   10.212 O
   451 O      15.485    8.940    6.322 O
   452 Si     15.485    8.940    0.000 Si
   453 O      15.485   10.316    0.486 O
   454 Si     15.485   11.691    0.973 Si
   455 O      16.676    8.253    0.486 O
   456 O      14.294    8.253    0.486 O
   457 O      15.485   11.691    2.431 O
   458 Si     15.485   11.691    3.890 Si
   459 O      15.485   10.316    4.377 O
   460 Si     15.485    8.940    4.863 Si
   461 O      16.676    8.253    4.377 O
   462 O      14.294    8.253    4.377 O
   463 Si     15.485    8.940    7.781 Si
   464 O      16.676    8.253    8.267 O
   465 O      14.294    8.253    8.267 O
   466 O      15.485   10.316    8.267 O
   467 Si     15.485   11.691    8.753 Si
   468 O      15.485   11.691   10.212 O
   469 O      13.103   13.066    6.322 O
   470 Si     13.103   13.066    0.000 Si
   471 O      13.103   14.442    0.486 O
   472 Si     13.103   15.817    0.973 Si
   473 O      14.294   12.379    0.486 O
   474 O      11.912   12.379    0.486 O
   475 O      13.103   15.817    2.431 O
   476 Si     13.103   15.817    3.890 Si
   477 O      13.103   14.442    4.377 O
   478 Si     13.103   13.066    4.863 Si
   479 O      14.294   12.379    4.377 O
   480 O      11.912   12.379    4.377 O
   481 Si     13.103   13.066    7.781 Si
   482 O      14.294   12.379    8.267 O
   483 O      11.912   12.379    8.267 O
   484 O      13.103   14.442    8.267 O
   485 Si     13.103   15.817    8.753 Si
   486 O      13.103   15.817   10.212 O
   487 O      17.867   13.066    6.322 O
   488 Si     17.867   13.066    0.000 Si
   489 O      17.867   14.442    0.486 O
   490 Si     17.867   15.817    0.973 Si
   491 O      19.058   12.379    0.486 O
   492 O      16.676   12.379    0.486 O
   493 O      17.867   15.817    2.431 O
   494 Si     17.867   15.817    3.890 Si
   495 O      17.867   14.442    4.377 O
   496 Si     17.867   13.066    4.863 Si
   497 O      19.058   12.379    4.377 O
   498 O      16.676   12.379    4.377 O
   499 Si     17.867   13.066    7.781 Si
   500 O      19.058   12.379    8.267 O
   501 O      16.676   12.379    8.267 O
   502 O      17.867   14.442    8.267 O
   503 Si     17.867   15.817    8.753 Si
   504 O      17.867   15.817   10.212 O
   505 O      20.250    8.940    6.322 O
   506 Si     20.250    8.940    0.000 Si
   507 O      20.250   10.316    0.486 O
   508 Si     20.250   11.691    0.973 Si
   509 O      21.441    8.253    0.486 O
   510 O      19.058    8.253    0.486 O
   511 O      20.250   11.691    2.431 O
   512 Si     20.250   11.691    3.890 Si
   513 O      20.250   10.316    4.377 O
   514 Si     20.250    8.940    4.863 Si
   515 O      21.441    8.253    4.377 O
   516 O      19.058    8.253    4.377 O
   517 Si     20.250    8.940    7.781 Si
   518 O      21.441    8.253    8.267 O
   519 O      19.058    8.253    8.267 O
   520 O      20.250   10.316    8.267 O
   521 Si     20.250   11.691    8.753 Si
   522 O      20.250   11.691   10.212 O
   523 O      25.014    8.940    6.322 O
   524 Si     25.014    8.940    0.000 Si
   525 O      25.014   10.316    0.486 O
   526 Si     25.014   11.691    0.973 Si
   527 O      26.205    8.253    0.486 O
   528 O      23.823    8.253    0.486 O
   529 O      25.014   11.691    2.431 O
   530 Si     25.014   11.691    3.890 Si
   531 O      25.014   10.316    4.377 O
   532 Si     25.014    8.940    4.863 Si
   533 O      26.205    8.253    4.377 O
   534 O      23.823    8.253    4.377 O
   535 Si     25.014    8.940    7.781 Si
   536 O      26.205    8.253    8.267 O
   537 O      23.823    8.253    8.267 O
   538 O      25.014   10.316    8.267 O
   539 Si     25.014   11.691    8.753 Si
   540 O      25.014   11.691   10.212 O
   541 O      22.632   13.066    6.322 O
   542 Si     22.632   13.066    0.000 Si
   543 O      22.632   14.442    0.486 O
   544 Si     22.632   15.817    0.973 Si
   545 O      23.823   12.379    0.486 O
   546 O      21.441   12.379    0.486 O
   547 O      22.632   15.817    2.431 O
   548 Si     22.632   15.817    3.890 Si
   549 O      22.632   14.442    4.377 O
   550 Si     22.632   13.066    4.863 Si
   551 O      23.823   12.379    4.377 O
   552 O      21.441   12.379    4.377 O
   553 Si     22.632   13.066    7.781 Si
   554 O      23.823   12.379    8.267 O
   555 O      21.441   12.379    8.267 O
   556 O      22.632   14.442    8.267 O
   557 Si     22.632   15.817    8.753 Si
   558 O      22.632   15.817   10.212 O
   559 O      27.396   13.066    6.322 O
   560 Si     27.396   13.066    0.000 Si
   561 O      27.396   14.442    0.486 O
   562 Si     27.396   15.817    0.973 Si
   563 O      28.587   12.379    0.486 O
   564 O      26.205   12.379    0.486 O
   565 O      27.396   15.817    2.431 O
   566 Si     27.396   15.817    3.890 Si
   567 O      27.396   14.442    4.377 O
   568 Si     27.396   13.066    4.863 Si
   569 O      28.587   12.379    4.377 O
   570 O      26.205   12.379    4.377 O
   571 Si     27.396   13.066    7.781 Si
   572 O      28.587   12.379    8.267 O
   573 O      26.205   12.379    8.267 O
   574 O      27.396   14.442    8.267 O
   575 Si     27.396   15.817    8.753 Si
   576 O      27.396   15.817   10.212 O
   577 O      29.779    8.940    6.322 O
   578 Si     29.779    8.940    0.000 Si
   579 O      29.779   10.316    0.486 O
   580 Si     29.779   11.691    0.973 Si
   581 O      30.970    8.253    0.486 O
   582 O      28.587    8.253    0.486 O
   583 O      29.779   11.691    2.431 O
   584 Si     29.779   11.691    3.890 Si
   585 O      29.779   10.316    4.377 O
   586 Si     29.779    8.940    4.863 Si
   587 O      30.970    8.253    4.377 O
   588 O      28.587    8.253    4.377 O
   589 Si     29.779    8.940    7.781 Si
   590 O      30.970    8.253    8.267 O
   591 O      28.587    8.253    8.267 O
   592 O      29.779   10.316    8.267 O
   593 Si     29.779   11.691    8.753 Si
   594 O      29.779   11.691   10.212 O
   595 O      34.543    8.940    6.322 O
   596 Si     34.543    8.940    0.000 Si
   597 O      34.543   10.316    0.486 O
   598 Si     34.543   11.691    0.973 Si
   599 O      35.734    8.253    0.486 O
   600 O      33.352    8.253    0.486 O
   601 O      34.543   11.691    2.431 O
   602 Si     34.543   11.691    3.890 Si
   603 O      34.543   10.316    4.377 O
   604 Si     34.543    8.940    4.863 Si
   605 O      35.734    8.253    4.377 O
   606 O      33.352    8.253    4.377 O
   607 Si     34.543    8.940    7.781 Si
   608 O      35.734    8.253    8.267 O
   609 O      33.352    8.253    8.267 O
   610 O      34.543   10.316    8.267 O
   611 Si     34.543   11.691    8.753 Si
   612 O      34.543   11.691   10.212 O
   613 O      32.161   13.066    6.322 O
   614 Si     32.161   13.066    0.000 Si
   615 O      32.161   14.442    0.486 O
   616 Si     32.161   15.817    0.973 Si
   617 O      33.352   12.379    0.486 O
   618 O      30.970   12.379    0.486 O
   619 O      32.161   15.817    2.431 O
   620 Si     32.161   15.817    3.890 Si
   621 O      32.161   14.442    4.377 O
   622 Si     32.161   13.066    4.863 Si
   623 O      33.352   12.379    4.377 O
   624 O      30.970   12.379    4.377 O
   625 Si     32.161   13.066    7.781 Si
   626 O      33.352   12.379    8.267 O
   627 O      30.970   12.379    8.267 O
   628 O      32.161   14.442    8.267 O
   629 Si     32.161   15.817    8.753 Si
   630 O      32.161   15.817   10.212 O
   631 O      36.925   13.066    6.322 O
   632 Si     36.925   13.066    0.000 Si
   633 O      36.925   14.442    0.486 O
   634 Si     36.925   15.817    0.973 Si
   635 O      38.117   12.379    0.486 O
   636 O      35.734   12.379    0.486 O
   637 O      36.925   15.817    2.431 O
   638 Si     36.925   15.817    3.890 Si
   639 O      36.925   14.442    4.377 O
   640 Si     36.925   13.066    4.863 Si
   641 O      38.117   12.379    4.377 O
   642 O      35.734   12.379    4.377 O
   643 Si     36.925   13.066    7.781 Si
   644 O      38.117   12.379    8.267 O
   645 O      35.734   12.379    8.267 O
   646 O      36.925   14.442    8.267 O
   647 Si     36.925   15.817    8.753 Si
   648 O      36.925   15.817   10.212 O
   649 O      39.308    8.940    6.322 O
   650 Si     39.308    8.940    0.000 Si
   651 O      39.308   10.316    0.486 O
   652 Si     39.308   11.691    0.973 Si
   653 O      40.499    8.253    0.486 O
   654 O      38.117    8.253    0.486 O
   655 O      39.308   11.691    2.431 O
   656 Si     39.308   11.691    3.890 Si
   657 O      39.308   10.316    4.377 O
   658 Si     39.308    8.940    4.863 Si
   659 O      40.499    8.253    4.377 O
   660 O      38.117    8.253    4.377 O
   661 Si     39.308    8.940    7.781 Si
   662 O      40.499    8.253    8.267 O
   663 O      38.117    8.253    8.267 O
   664 O      39.308   10.316    8.267 O
   665 Si     39.308   11.691    8.753 Si
   666 O      39.308   11.691   10.212 O
   667 O      44.072    8.940    6.322 O
   668 Si     44.072    8.940    0.000 Si
   669 O      44.072   10.316    0.486 O
   670 Si     44.072   11.691    0.973 Si
   671 O      45.264    8.253    0.486 O
   672 O      42.881    8.253    0.486 O
   673 O      44.072   11.691    2.431 O
   674 Si     44.072   11.691    3.890 Si
   675 O      44.072   10.316    4.377 O
   676 Si     44.072    8.940    4.863 Si
   677 O      45.264    8.253    4.377 O
   678 O      42.881    8.253    4.377 O
   679 Si     44.072    8.940    7.781 Si
   680 O      45.264    8.253    8.267 O
   681 O      42.881    8.253    8.267 O
   682 O      44.072   10.316    8.267 O
   683 Si     44.072   11.691    8.753 Si
   684 O      44.072   11.691   10.212 O
   685 O      41.690   13.066    6.322 O
   686 Si     41.690   13.066    0.000 Si
   687 O      41.690   14.442    0.486 O
   688 Si     41.690   15.817    0.973 Si
   689 O      42.881   12.379    0.486 O
   690 O      40.499   12.379    0.486 O
   691 O      41.690   15.817    2.431 O
   692 Si     41.690   15.817    3.890 Si
   693 O      41.690   14.442    4.377 O
   694 Si     41.690   13.066    4.863 Si
   695 O      42.881   12.379    4.377 O
   696 O      40.499   12.379    4.377 O
   697 Si     41.690   13.066    7.781 Si
   698 O      42.881   12.379    8.267 O
   699 O      40.499   12.379    8.267 O
   700 O      41.690   14.442    8.267 O
   701 Si     41.690   15.817    8.753 Si
   702 O      41.690   15.817   10.212 O
   703 O      46.455   13.066    6.322 O
   704 Si     46.455   13.066    0.000 Si
   705 O      46.455   14.442    0.486 O
   706 Si     46.455   15.817    0.973 Si
   707 O      -0.043   12.379    0.486 O
   708 O      45.264   12.379    0.486 O
   709 O      46.455   15.817    2.431 O
   710 Si     46.455   15.817    3.890 Si
   711 O      46.455   14.442    4.377 O
   712 Si     46.455   13.066    4.863 Si
   713 O      -0.043   12.379    4.377 O
   714 O      45.264   12.379    4.377 O
   715 Si     46.455   13.066    7.781 Si
   716 O      -0.043   12.379    8.267 O
   717 O      45.264   12.379    8.267 O
   718 O      46.455   14.442    8.267 O
   719 Si     46.455   15.817    8.753 Si
   720 O      46.455   15.817   10.212 O
   721 O       1.191   17.193    6.322 O
   722 Si      1.191   17.193    0.000 Si
   723 O       1.191   18.568    0.486 O
   724 Si      1.191   19.944    0.973 Si
   725 O       2.382   16.505    0.486 O
   726 O       0.000   16.505    0.486 O
   727 O       1.191   19.944    2.431 O
   728 Si      1.191   19.944    3.890 Si
   729 O       1.191   18.568    4.377 O
   730 Si      1.191   17.193    4.863 Si
   731 O       2.382   16.505    4.377 O
   732 O       0.000   16.505    4.377 O
   733 Si      1.191   17.193    7.781 Si
   734 O       2.382   16.505    8.267 O
   735 O       0.000   16.505    8.267 O
   736 O       1.191   18.568    8.267 O
   737 Si      1.191   19.944    8.753 Si
   738 O       1.191   19.944   10.212 O
   739 O       5.956   17.193    6.322 O
   740 Si      5.956   17.193    0.000 Si
   741 O       5.956   18.568    0.486 O
   742 Si      5.956   19.944    0.973 Si
   743 O       7.147   16.505    0.486 O
   744 O       4.765   16.505    0.486 O
   745 O       5.956   19.944    2.431 O
   746 Si      5.956   19.944    3.890 Si
   747 O       5.956   18.568    4.377 O
   748 Si      5.956   17.193    4.863 Si
   749 O       7.147   16.505    4.377 O
   750 O       4.765   16.505    4.377 O
   751 Si      5.956   17.193    7.781 Si
   752 O       7.147   16.505    8.267 O
   753 O       4.765   16.505    8.267 O
   754 O       5.956   18.568    8.267 O
   755 Si      5.956   19.944    8.753 Si
   756 O       5.956   19.944   10.212 O
   757 O       3.573   21.319    6.322 O
   758 Si      3.573   21.319    0.000 Si
   759 O       3.573   22.694    0.486 O
   760 Si      3.573   24.070    0.973 Si
   761 O       4.765   20.631    0.486 O
   762 O       2.382   20.631    0.486 O
   763 O       3.573   24.070    2.431 O
   764 Si      3.573   24.070    3.890 Si
   765 O       3.573   22.694    4.377 O
   766 Si      3.573   21.319    4.863 Si
   767 O       4.765   20.631    4.377 O
   768 O       2.382   20.631    4.377 O
   769 Si      3.573   21.319    7.781 Si
   770 O       4.765   20.631    8.267 O
   771 O       2.382   20.631    8.267 O
   772 O       3.573   22.694    8.267 O
   773 Si      3.573   24.070    8.753 Si
   774 O       3.573   24.070   10.212 O
   775 O       8.338   21.319    6.322 O
   776 Si      8.338   21.319    0.000 Si
   777 O       8.338   22.694    0.486 O
   778 Si      8.338   24.070    0.973 Si
   779 O       9.529   20.631    0.486 O
   780 O       7.147   20.631    0.486 O
   781 O       8.338   24.070    2.431 O
   782 Si      8.338   24.070    3.890 Si
   783 O       8.338   22.694    4.377 O
   784 Si      8.338   21.319    4.863 Si
   785 O       9.529   20.631    4.377 O
   786 O       7.147   20.631    4.377 O
   787 Si      8.338   21.319    7.781 Si
   788 O       9.529   20.631    8.267 O
   789 O       7.147   20.631    8.267 O
   790 O       8.338   22.694    8.267 O
   791 Si      8.338   24.070    8.753 Si
   792 O       8.338   24.070   10.212 O
   793 O      10.720   17.193    6.322 O
   794 Si     10.720   17.193    0.000 Si
   795 O      10.720   18.568    0.486 O
   796 Si     10.720   19.944    0.973 Si
   797 O      11.912   16.505    0.486 O
   798 O       9.529   16.505    0.486 O
   799 O      10.720   19.944    2.431 O
   800 Si     10.720   19.944    3.890 Si
   801 O      10.720   18.568    4.377 O
   802 Si     10.720   17.193    4.863 Si
   803 O      11.912   16.505    4.377 O
   804 O       9.529   16.505    4.377 O
   805 Si     10.720   17.193    7.781 Si
   806 O      11.912   16.505    8.267 O
   807 O       9.529   16.505    8.267 O
   808 O      10.720   18.568    8.267 O
   809 Si     10.720   19.944    8.753 Si
   810 O      10.720   19.944   10.212 O
   811 O      15.485   17.193    6.322 O
   812 Si     15.485   17.193    0.000 Si
   813 O      15.485   18.568    0.486 O
   814 Si     15.485   19.944    0.973 Si
   815 O      16.676   16.505    0.486 O
   816 O      14.294   16.505    0.486 O
   817 O      15.485   19.944    2.431 O
   818 Si     15.485   19.944    3.890 Si
   819 O      15.485   18.568    4.377 O
   820 Si     15.485   17.193    4.863 Si
   821 O      16.676   16.505    4.377 O
   822 O      14.294   16.505    4.377 O
   823 Si     15.485   17.193    7.781 Si
   824 O      16.676   16.505    8.267 O
   825 O      14.294   16.505    8.267 O
   826 O      15.485   18.568    8.267 O
   827 Si     15.485   19.944    8.753 Si
   828 O      15.485   19.944   10.212 O
   829 O      13.103   21.319    6.322 O
   830 Si     13.103   21.319    0.000 Si
   831 O      13.103   22.694    0.486 O
   832 Si     13.103   24.070    0.973 Si
   833 O      14.294   20.631    0.486 O
   834 O      11.912   20.631    0.486 O
   835 O      13.103   24.070    2.431 O
   836 Si     13.103   24.070    3.890 Si
   837 O      13.103   22.694    4.377 O
   838 Si     13.103   21.319    4.863 Si
   839 O      14.294   20.631    4.377 O
   840 O      11.912   20.631    4.377 O
   841 Si     13.103   21.319    7.781 Si
   842 O      14.294   20.631    8.267 O
   843 O      11.912   20.631    8.267 O
   844 O      13.103   22.694    8.267 O
   845 Si     13.103   24.070    8.753 Si
   846 O      13.103   24.070   10.212 O
   847 O      17.867   21.319    6.322 O
   848 Si     17.867   21.319    0.000 Si
   849 O      17.867   22.694    0.486 O
   850 Si     17.867   24.070    0.973 Si
   851 O      19.058   20.631    0.486 O
   852 O      16.676   20.631    0.486 O
   853 O      17.867   24.070    2.431 O
   854 Si     17.867   24.070    3.890 Si
   855 O      17.867   22.694    4.377 O
   856 Si     17.867   21.319    4.863 Si
   857 O      19.058   20.631    4.377 O
   858 O      16.676   20.631    4.377 O
   859 Si     17.867   21.319    7.781 Si
   860 O      19.058   20.631    8.267 O
   861 O      16.676   20.631    8.267 O
   862 O      17.867   22.694    8.267 O
   863 Si     17.867   24.070    8.753 Si
   864 O      17.867   24.070   10.212 O
   865 O      20.250   17.193    6.322 O
   866 Si     20.250   17.193    0.000 Si
   867 O      20.250   18.568    0.486 O
   868 Si     20.250   19.944    0.973 Si
   869 O      21.441   16.505    0.486 O
   870 O      19.058   16.505    0.486 O
   871 O      20.250   19.944    2.431 O
   872 Si     20.250   19.944    3.890 Si
   873 O      20.250   18.568    4.377 O
   874 Si     20.250   17.193    4.863 Si
   875 O      21.441   16.505    4.377 O
   876 O      19.058   16.505    4.377 O
   877 Si     20.250   17.193    7.781 Si
   878 O      21.441   16.505    8.267 O
   879 O      19.058   16.505    8.267 O
   880 O      20.250   18.568    8.267 O
   881 Si     20.250   19.944    8.753 Si
   882 O      20.250   19.944   10.212 O
   883 O      25.014   17.193    6.322 O
   884 Si     25.014   17.193    0.000 Si
   885 O      25.014   18.568    0.486 O
   886 Si     25.014   19.944    0.973 Si
   887 O      26.205   16.505    0.486 O
   888 O      23.823   16.505    0.486 O
   889 O      25.014   19.944    2.431 O
   890 Si     25.014   19.944    3.890 Si
   891 O      25.014   18.568    4.377 O
   892 Si     25.014   17.193    4.863 Si
   893 O      26.205   16.505    4.377 O
   894 O      23.823   16.505    4.377 O
   895 Si     25.014   17.193    7.781 Si
   896 O      26.205   16.505    8.267 O
   897 O      23.823   16.505    8.267 O
   898 O      25.014   18.568    8.267 O
   899 Si     25.014   19.944    8.753 Si
   900 O      25.014   19.944   10.212 O
   901 O      22.632   21.319    6.322 O
   902 Si     22.632   21.319    0.000 Si
   903 O      22.632   22.694    0.486 O
   904 Si     22.632   24.070    0.973 Si
   905 O      23.823   20.631    0.486 O
   906 O      21.441   20.631    0.486 O
   907 O      22.632   24.070    2.431 O
   908 Si     22.632   24.070    3.890 Si
   909 O      22.632   22.694    4.377 O
   910 Si     22.632   21.319    4.863 Si
   911 O      23.823   20.631    4.377 O
   912 O      21.441   20.631    4.377 O
   913 Si     22.632   21.319    7.781 Si
   914 O      23.823   20.631    8.267 O
   915 O      21.441   20.631    8.267 O
   916 O      22.632   22.694    8.267 O
   917 Si     22.632   24.070    8.753 Si
   918 O      22.632   24.070   10.212 O
   919 O      27.396   21.319    6.322 O
   920 Si     27.396   21.319    0.000 Si
   921 O      27.396   22.694    0.486 O
   922 Si     27.396   24.070    0.973 Si
   923 O      28.587   20.631    0.486 O
   924 O      26.205   20.631    0.486 O
   925 O      27.396   24.070    2.431 O
   926 Si     27.396   24.070    3.890 Si
   927 O      27.396   22.694    4.377 O
   928 Si     27.396   21.319    4.863 Si
   929 O      28.587   20.631    4.377 O
   930 O      26.205   20.631    4.377 O
   931 Si     27.396   21.319    7.781 Si
   932 O      28.587   20.631    8.267 O
   933 O      26.205   20.631    8.267 O
   934 O      27.396   22.694    8.267 O
   935 Si     27.396   24.070    8.753 Si
   936 O      27.396   24.070   10.212 O
   937 O      29.779   17.193    6.322 O
   938 Si     29.779   17.193    0.000 Si
   939 O      29.779   18.568    0.486 O
   940 Si     29.779   19.944    0.973 Si
   941 O      30.970   16.505    0.486 O
   942 O      28.587   16.505    0.486 O
   943 O      29.779   19.944    2.431 O
   944 Si     29.779   19.944    3.890 Si
   945 O      29.779   18.568    4.377 O
   946 Si     29.779   17.193    4.863 Si
   947 O      30.970   16.505    4.377 O
   948 O      28.587   16.505    4.377 O
   949 Si     29.779   17.193    7.781 Si
   950 O      30.970   16.505    8.267 O
   951 O      28.587   16.505    8.267 O
   952 O      29.779   18.568    8.267 O
   953 Si     29.779   19.944    8.753 Si
   954 O      29.779   19.944   10.212 O
   955 O      34.543   17.193    6.322 O
   956 Si     34.543   17.193    0.000 Si
   957 O      34.543   18.568    0.486 O
   958 Si     34.543   19.944    0.973 Si
   959 O      35.734   16.505    0.486 O
   960 O      33.352   16.505    0.486 O
   961 O      34.543   19.944    2.431 O
   962 Si     34.543   19.944    3.890 Si
   963 O      34.543   18.568    4.377 O
   964 Si     34.543   17.193    4.863 Si
   965 O      35.734   16.505    4.377 O
   966 O      33.352   16.505    4.377 O
   967 Si     34.543   17.193    7.781 Si
   968 O      35.734   16.505    8.267 O
   969 O      33.352   16.505    8.267 O
   970 O      34.543   18.568    8.267 O
   971 Si     34.543   19.944    8.753 Si
   972 O      34.543   19.944   10.212 O
   973 O      32.161   21.319    6.322 O
   974 Si     32.161   21.319    0.000 Si
   975 O      32.161   22.694    0.486 O
   976 Si     32.161   24.070    0.973 Si
   977 O      33.352   20.631    0.486 O
   978 O      30.970   20.631    0.486 O
   979 O      32.161   24.070    2.431 O
   980 Si     32.161   24.070    3.890 Si
   981 O      32.161   22.694    4.377 O
   982 Si     32.161   21.319    4.863 Si
   983 O      33.352   20.631    4.377 O
   984 O      30.970   20.631    4.377 O
   985 Si     32.161   21.319    7.781 Si
   986 O      33.352   20.631    8.267 O
   987 O      30.970   20.631    8.267 O
   988 O      32.161   22.694    8.267 O
   989 Si     32.161   24.070    8.753 Si
   990 O      32.161   24.070   10.212 O
   991 O      36.925   21.319    6.322 O
   992 Si     36.925   21.319    0.000 Si
   993 O      36.925   22.694    0.486 O
   994 Si     36.925   24.070    0.973 Si
   995 O      38.117   20.631    0.486 O
   996 O      35.734   20.631    0.486 O
   997 O      36.925   24.070    2.431 O
   998 Si     36.925   24.070    3.890 Si
   999 O      36.925   22.694    4.377 O
  1000 Si     36.925   21.319    4.863 Si
  1001 O      38.117   20.631    4.377 O
  1002 O      35.734   20.631    4.377 O
  1003 Si     36.925   21.319    7.781 Si
  1004 O      38.117   20.631    8.267 O
  1005 O      35.734   20.631    8.267 O
  1006 O      36.925   22.694    8.267 O
  1007 Si     36.925   24.070    8.753 Si
  1008 O      36.925   24.070   10.212 O
  1009 O      39.308   17.193    6.322 O
  1010 Si     39.308   17.193    0.000 Si
  1011 O      39.308   18.568    0.486 O
  1012 Si     39.308   19.944    0.973 Si
  1013 O      40.499   16.505    0.486 O
  1014 O      38.117   16.505    0.486 O
  1015 O      39.308   19.944    2.431 O
  1016 Si     39.308   19.944    3.890 Si
  1017 O      39.308   18.568    4.377 O
  1018 Si     39.308   17.193    4.863 Si
  1019 O      40.499   16.505    4.377 O
  1020 O      38.117   16.505    4.377 O
  1021 Si     39.308   17.193    7.781 Si
  1022 O      40.499   16.505    8.267 O
  1023 O      38.117   16.505    8.267 O
  1024 O      39.308   18.568    8.267 O
  1025 Si     39.308   19.944    8.753 Si
  1026 O      39.308   19.944   10.212 O
  1027 O      44.072   17.193    6.322 O
  1028 Si     44.072   17.193    0.000 Si
  1029 O      44.072   18.568    0.486 O
  1030 Si     44.072   19.944    0.973 Si
  1031 O      45.264   16.505    0.486 O
  1032 O      42.881   16.505    0.486 O
  1033 O      44.072   19.944    2.431 O
  1034 Si     44.072   19.944    3.890 Si
  1035 O      44.072   18.568    4.377 O
  1036 Si     44.072   17.193    4.863 Si
  1037 O      45.264   16.505    4.377 O
  1038 O      42.881   16.505    4.377 O
  1039 Si     44.072   17.193    7.781 Si
  1040 O      45.264   16.505    8.267 O
  1041 O      42.881   16.505    8.267 O
  1042 O      44.072   18.568    8.267 O
  1043 Si     44.072   19.944    8.753 Si
  1044 O      44.072   19.944   10.212 O
  1045 O      41.690   21.319    6.322 O
  1046 Si     41.690   21.319    0.000 Si
  1047 O      41.690   22.694    0.486 O
  1048 Si     41.690   24.070    0.973 Si
  1049 O      42.881   20.631    0.486 O
  1050 O      40.499   20.631    0.486 O
  1051 O      41.690   24.070    2.431 O
  1052 Si     41.690   24.070    3.890 Si
  1053 O      41.690   22.694    4.377 O
  1054 Si     41.690   21.319    4.863 Si
  1055 O      42.881   20.631    4.377 O
  1056 O      40.499   20.631    4.377 O
  1057 Si     41.690   21.319    7.781 Si
  1058 O      42.881   20.631    8.267 O
  1059 O      40.499   20.631    8.267 O
  1060 O      41.690   22.694    8.267 O
  1061 Si     41.690   24.070    8.753 Si
  1062 O      41.690   24.070   10.212 O
  1063 O      46.455   21.319    6.322 O
  1064 Si     46.455   21.319    0.000 Si
  1065 O      46.455   22.694    0.486 O
  1066 Si     46.455   24.070    0.973 Si
  1067 O      -0.043   20.631    0.486 O
  1068 O      45.264   20.631    0.486 O
  1069 O      46.455   24.070    2.431 O
  1070 Si     46.455   24.070    3.890 Si
  1071 O      46.455   22.694    4.377 O
  1072 Si     46.455   21.319    4.863 Si
  1073 O      -0.043   20.631    4.377 O
  1074 O      45.264   20.631    4.377 O
  1075 Si     46.455   21.319    7.781 Si
  1076 O      -0.043   20.631    8.267 O
  1077 O      45.264   20.631    8.267 O
  1078 O      46.455   22.694    8.267 O
  1079 Si     46.455   24.070    8.753 Si
  1080 O      46.455   24.070   10.212 O
  1081 O       1.191   25.445    6.322 O
  1082 Si      1.191   25.445    0.000 Si
  1083 O       1.191   26.821    0.486 O
  1084 Si      1.191   28.196    0.973 Si
  1085 O       2.382   24.758    0.486 O
  1086 O       0.000   24.758    0.486 O
  1087 O       1.191   28.196    2.431 O
  1088 Si      1.191   28.196    3.890 Si
  1089 O       1.191   26.821    4.377 O
  1090 Si      1.191   25.445    4.863 Si
  1091 O       2.382   24.758    4.377 O
  1092 O       0.000   24.758    4.377 O
  1093 Si      1.191   25.445    7.781 Si
  1094 O       2.382   24.758    8.267 O
  1095 O       0.000   24.758    8.267 O
  1096 O       1.191   26.821    8.267 O
  1097 Si      1.191   28.196    8.753 Si
  1098 O       1.191   28.196   10.212 O
  1099 O       5.956   25.445    6.322 O
  1100 Si      5.956   25.445    0.000 Si
  1101 O       5.956   26.821    0.486 O
  1102 Si      5.956   28.196    0.973 Si
  1103 O       7.147   24.758    0.486 O
  1104 O       4.765   24.758    0.486 O
  1105 O       5.956   28.196    2.431 O
  1106 Si      5.956   28.196    3.890 Si
  1107 O       5.956   26.821    4.377 O
  1108 Si      5.956   25.445    4.863 Si
  1109 O       7.147   24.758    4.377 O
  1110 O       4.765   24.758    4.377 O
  1111 Si      5.956   25.445    7.781 Si
  1112 O       7.147   24.758    8.267 O
  1113 O       4.765   24.758    8.267 O
  1114 O       5.956   26.821    8.267 O
  1115 Si      5.956   28.196    8.753 Si
  1116 O       5.956   28.196   10.212 O
  1117 O       3.573   29.572    6.322 O
  1118 Si      3.573   29.572    0.000 Si
  1119 O       3.573   30.947    0.486 O
  1120 Si      3.573   32.322    0.973 Si
  1121 O       4.765   28.884    0.486 O
  1122 O       2.382   28.884    0.486 O
  1123 O       3.573   32.322    2.431 O
  1124 Si      3.573   32.322    3.890 Si
  1125 O       3.573   30.947    4.377 O
  1126 Si      3.573   29.572    4.863 Si
  1127 O       4.765   28.884    4.377 O
  1128 O       2.382   28.884    4.377 O
  1129 Si      3.573   29.572    7.781 Si
  1130 O       4.765   28.884    8.267 O
  1131 O       2.382   28.884    8.267 O
  1132 O       3.573   30.947    8.267 O
  1133 Si      3.573   32.322    8.753 Si
  1134 O       3.573   32.322   10.212 O
  1135 O       8.338   29.572    6.322 O
  1136 Si      8.338   29.572    0.000 Si
  1137 O       8.338   30.947    0.486 O
  1138 Si      8.338   32.322    0.973 Si
  1139 O       9.529   28.884    0.486 O
  1140 O       7.147   28.884    0.486 O
  1141 O       8.338   32.322    2.431 O
  1142 Si      8.338   32.322    3.890 Si
  1143 O       8.338   30.947    4.377 O
  1144 Si      8.338   29.572    4.863 Si
  1145 O       9.529   28.884    4.377 O
  1146 O       7.147   28.884    4.377 O
  1147 Si      8.338   29.572    7.781 Si
  1148 O       9.529   28.884    8.267 O
  1149 O       7.147   28.884    8.267 O
  1150 O       8.338   30.947    8.267 O
  1151 Si      8.338   32.322    8.753 Si
  1152 O       8.338   32.322   10.212 O
  1153 O      10.720   25.445    6.322 O
  1154 Si     10.720   25.445    0.000 Si
  1155 O      10.720   26.821    0.486 O
  1156 Si     10.720   28.196    0.973 Si
  1157 O      11.912   24.758    0.486 O
  1158 O       9.529   24.758    0.486 O
  1159 O      10.720   28.196    2.431 O
  1160 Si     10.720   28.196    3.890 Si
  1161 O      10.720   26.821    4.377 O
  1162 Si     10.720   25.445    4.863 Si
  1163 O      11.912   24.758    4.377 O
  1164 O       9.529   24.758    4.377 O
  1165 Si     10.720   25.445    7.781 Si
  1166 O      11.912   24.758    8.267 O
  1167 O       9.529   24.758    8.267 O
  1168 O      10.720   26.821    8.267 O
  1169 Si     10.720   28.196    8.753 Si
  1170 O      10.720   28.196   10.212 O
  1171 O      15.485   25.445    6.322 O
  1172 Si     15.485   25.445    0.000 Si
  1173 O      15.485   26.821    0.486 O
  1174 Si     15.485   28.196    0.973 Si
  1175 O      16.676   24.758    0.486 O
  1176 O      14.294   24.758    0.486 O
  1177 O      15.485   28.196    2.431 O
  1178 Si     15.485   28.196    3.890 Si
  1179 O      15.485   26.821    4.377 O
  1180 Si     15.485   25.445    4.863 Si
  1181 O      16.676   24.758    4.377 O
  1182 O      14.294   24.758    4.377 O
  1183 Si     15.485   25.445    7.781 Si
  1184 O      16.676   24.758    8.267 O
  1185 O      14.294   24.758    8.267 O
  1186 O      15.485   26.821    8.267 O
  1187 Si     15.485   28.196    8.753 Si
  1188 O      15.485   28.196   10.212 O
  1189 O      13.103   29.572    6.322 O
  1190 Si     13.103   29.572    0.000 Si
  1191 O      13.103   30.947    0.486 O
  1192 Si     13.103   32.322    0.973 Si
  1193 O      14.294   28.884    0.486 O
  1194 O      11.912   28.884    0.486 O
  1195 O      13.103   32.322    2.431 O
  1196 Si     13.103   32.322    3.890 Si
  1197 O      13.103   30.947    4.377 O
  1198 Si     13.103   29.572    4.863 Si
  1199 O      14.294   28.884    4.377 O
  1200 O      11.912   28.884    4.377 O
  1201 Si     13.103   29.572    7.781 Si
  1202 O      14.294   28.884    8.267 O
  1203 O      11.912   28.884    8.267 O
  1204 O      13.103   30.947    8.267 O
  1205 Si     13.103   32.322    8.753 Si
  1206 O      13.103   32.322   10.212 O
  1207 O      17.867   29.572    6.322 O
  1208 Si     17.867   29.572    0.000 Si
  1209 O      17.867   30.947    0.486 O
  1210 Si     17.867   32.322    0.973 Si
  1211 O      19.058   28.884    0.486 O
  1212 O      16.676   28.884    0.486 O
  1213 O      17.867   32.322    2.431 O
  1214 Si     17.867   32.322    3.890 Si
  1215 O      17.867   30.947    4.377 O
  1216 Si     17.867   29.572    4.863 Si
  1217 O      19.058   28.884    4.377 O
  1218 O      16.676   28.884    4.377 O
  1219 Si     17.867   29.572    7.781 Si
  1220 O      19.058   28.884    8.267 O
  1221 O      16.676   28.884    8.267 O
  1222 O      17.867   30.947    8.267 O
  1223 Si     17.867   32.322    8.753 Si
  1224 O      17.867   32.322   10.212 O
  1225 O      20.250   25.445    6.322 O
  1226 Si     20.250   25.445    0.000 Si
  1227 O      20.250   26.821    0.486 O
  1228 Si     20.250   28.196    0.973 Si
  1229 O      21.441   24.758    0.486 O
  1230 O      19.058   24.758    0.486 O
  1231 O      20.250   28.196    2.431 O
  1232 Si     20.250   28.196    3.890 Si
  1233 O      20.250   26.821    4.377 O
  1234 Si     20.250   25.445    4.863 Si
  1235 O      21.441   24.758    4.377 O
  1236 O      19.058   24.758    4.377 O
  1237 Si     20.250   25.445    7.781 Si
  1238 O      21.441   24.758    8.267 O
  1239 O      19.058   24.758    8.267 O
  1240 O      20.250   26.821    8.267 O
  1241 Si     20.250   28.196    8.753 Si
  1242 O      20.250   28.196   10.212 O
  1243 O      25.014   25.445    6.322 O
  1244 Si     25.014   25.445    0.000 Si
  1245 O      25.014   26.821    0.486 O
  1246 Si     25.014   28.196    0.973 Si
  1247 O      26.205   24.758    0.486 O
  1248 O      23.823   24.758    0.486 O
  1249 O      25.014   28.196    2.431 O
  1250 Si     25.014   28.196    3.890 Si
  1251 O      25.014   26.821    4.377 O
  1252 Si     25.014   25.445    4.863 Si
  1253 O      26.205   24.758    4.377 O
  1254 O      23.823   24.758    4.377 O
  1255 Si     25.014   25.445    7.781 Si
  1256 O      26.205   24.758    8.267 O
  1257 O      23.823   24.758    8.267 O
  1258 O      25.014   26.821    8.267 O
  1259 Si     25.014   28.196    8.753 Si
  1260 O      25.014   28.196   10.212 O
  1261 O      22.632   29.572    6.322 O
  1262 Si     22.632   29.572    0.000 Si
  1263 O      22.632   30.947    0.486 O
  1264 Si     22.632   32.322    0.973 Si
  1265 O      23.823   28.884    0.486 O
  1266 O      21.441   28.884    0.486 O
  1267 O      22.632   32.322    2.431 O
  1268 Si     22.632   32.322    3.890 Si
  1269 O      22.632   30.947    4.377 O
  1270 Si     22.632   29.572    4.863 Si
  1271 O      23.823   28.884    4.377 O
  1272 O      21.441   28.884    4.377 O
  1273 Si     22.632   29.572    7.781 Si
  1274 O      23.823   28.884    8.267 O
  1275 O      21.441   28.884    8.267 O
  1276 O      22.632   30.947    8.267 O
  1277 Si     22.632   32.322    8.753 Si
  1278 O      22.632   32.322   10.212 O
  1279 O      27.396   29.572    6.322 O
  1280 Si     27.396   29.572    0.000 Si
  1281 O      27.396   30.947    0.486 O
  1282 Si     27.396   32.322    0.973 Si
  1283 O      28.587   28.884    0.486 O
  1284 O      26.205   28.884    0.486 O
  1285 O      27.396   32.322    2.431 O
  1286 Si     27.396   32.322    3.890 Si
  1287 O      27.396   30.947    4.377 O
  1288 Si     27.396   29.572    4.863 Si
  1289 O      28.587   28.884    4.377 O
  1290 O      26.205   28.884    4.377 O
  1291 Si     27.396   29.572    7.781 Si
  1292 O      28.587   28.884    8.267 O
  1293 O      26.205   28.884    8.267 O
  1294 O      27.396   30.947    8.267 O
  1295 Si     27.396   32.322    8.753 Si
  1296 O      27.396   32.322   10.212 O
  1297 O      29.779   25.445    6.322 O
  1298 Si     29.779   25.445    0.000 Si
  1299 O      29.779   26.821    0.486 O
  1300 Si     29.779   28.196    0.973 Si
  1301 O      30.970   24.758    0.486 O
  1302 O      28.587   24.758    0.486 O
  1303 O      29.779   28.196    2.431 O
  1304 Si     29.779   28.196    3.890 Si
  1305 O      29.779   26.821    4.377 O
  1306 Si     29.779   25.445    4.863 Si
  1307 O      30.970   24.758    4.377 O
  1308 O      28.587   24.758    4.377 O
  1309 Si     29.779   25.445    7.781 Si
  1310 O      30.970   24.758    8.267 O
  1311 O      28.587   24.758    8.267 O
  1312 O      29.779   26.821    8.267 O
  1313 Si     29.779   28.196    8.753 Si
  1314 O      29.779   28.196   10.212 O
  1315 O      34.543   25.445    6.322 O
  1316 Si     34.543   25.445    0.000 Si
  1317 O      34.543   26.821    0.486 O
  1318 Si     34.543   28.196    0.973 Si
  1319 O      35.734   24.758    0.486 O
  1320 O      33.352   24.758    0.486 O
  1321 O      34.543   28.196    2.431 O
  1322 Si     34.543   28.196    3.890 Si
  1323 O      34.543   26.821    4.377 O
  1324 Si     34.543   25.445    4.863 Si
  1325 O      35.734   24.758    4.377 O
  1326 O      33.352   24.758    4.377 O
  1327 Si     34.543   25.445    7.781 Si
  1328 O      35.734   24.758    8.267 O
  1329 O      33.352   24.758    8.267 O
  1330 O      34.543   26.821    8.267 O
  1331 Si     34.543   28.196    8.753 Si
  1332 O      34.543   28.196   10.212 O
  1333 O      32.161   29.572    6.322 O
  1334 Si     32.161   29.572    0.000 Si
  1335 O      32.161   30.947    0.486 O
  1336 Si     32.161   32.322    0.973 Si
  1337 O      33.352   28.884    0.486 O
  1338 O      30.970   28.884    0.486 O
  1339 O      32.161   32.322    2.431 O
  1340 Si     32.161   32.322    3.890 Si
  1341 O      32.161   30.947    4.377 O
  1342 Si     32.161   29.572    4.863 Si
  1343 O      33.352   28.884    4.377 O
  1344 O      30.970   28.884    4.377 O
  1345 Si     32.161   29.572    7.781 Si
  1346 O      33.352   28.884    8.267 O
  1347 O      30.970   28.884    8.267 O
  1348 O      32.161   30.947    8.267 O
  1349 Si     32.161   32.322    8.753 Si
  1350 O      32.161   32.322   10.212 O
  1351 O      36.925   29.572    6.322 O
  1352 Si     36.925   29.572    0.000 Si
  1353 O      36.925   30.947    0.486 O
  1354 Si     36.925   32.322    0.973 Si
  1355 O      38.117   28.884    0.486 O
  1356 O      35.734   28.884    0.486 O
  1357 O      36.925   32.322    2.431 O
  1358 Si     36.925   32.322    3.890 Si
  1359 O      36.925   30.947    4.377 O
  1360 Si     36.925   29.572    4.863 Si
  1361 O      38.117   28.884    4.377 O
  1362 O      35.734   28.884    4.377 O
  1363 Si     36.925   29.572    7.781 Si
  1364 O      38.117   28.884    8.267 O
  1365 O      35.734   28.884    8.267 O
  1366 O      36.925   30.947    8.267 O
  1367 Si     36.925   32.322    8.753 Si
  1368 O      36.925   32.322   10.212 O
  1369 O      39.308   25.445    6.322 O
  1370 Si     39.308   25.445    0.000 Si
  1371 O      39.308   26.821    0.486 O
  1372 Si     39.308   28.196    0.973 Si
  1373 O      40.499   24.758    0.486 O
  1374 O      38.117   24.758    0.486 O
  1375 O      39.308   28.196    2.431 O
  1376 Si     39.308   28.196    3.890 Si
  1377 O      39.308   26.821    4.377 O
  1378 Si     39.308   25.445    4.863 Si
  1379 O      40.499   24.758    4.377 O
  1380 O      38.117   24.758    4.377 O
  1381 Si     39.308   25.445    7.781 Si
  1382 O      40.499   24.758    8.267 O
  1383 O      38.117   24.758    8.267 O
  1384 O      39.308   26.821    8.267 O
  1385 Si     39.308   28.196    8.753 Si
  1386 O      39.308   28.196   10.212 O
  1387 O      44.072   25.445    6.322 O
  1388 Si     44.072   25.445    0.000 Si
  1389 O      44.072   26.821    0.486 O
  1390 Si     44.072   28.196    0.973 Si
  1391 O      45.264   24.758    0.486 O
  1392 O      42.881   24.758    0.486 O
  1393 O      44.072   28.196    2.431 O
  1394 Si     44.072   28.196    3.890 Si
  1395 O      44.072   26.821    4.377 O
  1396 Si     44.072   25.445    4.863 Si
  1397 O      45.264   24.758    4.377 O
  1398 O      42.881   24.758    4.377 O
  1399 Si     44.072   25.445    7.781 Si
  1400 O      45.264   24.758    8.267 O
  1401 O      42.881   24.758    8.267 O
  1402 O      44.072   26.821    8.267 O
  1403 Si     44.072   28.196    8.753 Si
  1404 O      44.072   28.196   10.212 O
  1405 O      41.690   29.572    6.322 O
  1406 Si     41.690   29.572    0.000 Si
  1407 O      41.690   30.947    0.486 O
  1408 Si     41.690   32.322    0.973 Si
  1409 O      42.881   28.884    0.486 O
  1410 O      40.499   28.884    0.486 O
  1411 O      41.690   32.322    2.431 O
  1412 Si     41.690   32.322    3.890 Si
  1413 O      41.690   30.947    4.377 O
  1414 Si     41.690   29.572    4.863 Si
  1415 O      42.881   28.884    4.377 O
  1416 O      40.499   28.884    4.377 O
  1417 Si     41.690   29.572    7.781 Si
  1418 O      42.881   28.884    8.267 O
  1419 O      40.499   28.884    8.267 O
  1420 O      41.690   30.947    8.267 O
  1421 Si     41.690   32.322    8.753 Si
  1422 O      41.690   32.322   10.212 O
  1423 O      46.455   29.572    6.322 O
  1424 Si     46.455   29.572    0.000 Si
  1425 O      46.455   30.947    0.486 O
  1426 Si     46.455   32.322    0.973 Si
  1427 O      -0.043   28.884    0.486 O
  1428 O      45.264   28.884    0.486 O
  1429 O      46.455   32.322    2.431 O
  1430 Si     46.455   32.322    3.890 Si
  1431 O      46.455   30.947    4.377 O
  1432 Si     46.455   29.572    4.863 Si
  1433 O      -0.043   28.884    4.377 O
  1434 O      45.264   28.884    4.377 O
  1435 Si     46.455   29.572    7.781 Si
  1436 O      -0.043   28.884    8.267 O
  1437 O      45.264   28.884    8.267 O
  1438 O      46.455   30.947    8.267 O
  1439 Si     46.455   32.322    8.753 Si
  1440 O      46.455   32.322   10.212 O
  1441 O       1.191   33.698    6.322 O
  1442 Si      1.191   33.698    0.000 Si
  1443 O       1.191   35.073    0.486 O
  1444 Si      1.191   36.449    0.973 Si
  1445 O       2.382   33.010    0.486 O
  1446 O       0.000   33.010    0.486 O
  1447 O       1.191   36.449    2.431 O
  1448 Si      1.191   36.449    3.890 Si
  1449 O       1.191   35.073    4.377 O
  1450 Si      1.191   33.698    4.863 Si
  1451 O       2.382   33.010    4.377 O
  1452 O       0.000   33.010    4.377 O
  1453 Si      1.191   33.698    7.781 Si
  1454 O       2.382   33.010    8.267 O
  1455 O       0.000   33.010    8.267 O
  1456 O       1.191   35.073    8.267 O
  1457 Si      1.191   36.449    8.753 Si
  1458 O       1.191   36.449   10.212 O
  1459 O       5.956   33.698    6.322 O
  1460 Si      5.956   33.698    0.000 Si
  1461 O       5.956   35.073    0.486 O
  1462 Si      5.956   36.449    0.973 Si
  1463 O       7.147   33.010    0.486 O
  1464 O       4.765   33.010    0.486 O
  1465 O       5.956   36.449    2.431 O
  1466 Si      5.956   36.449    3.890 Si
  1467 O       5.956   35.073    4.377 O
  1468 Si      5.956   33.698    4.863 Si
  1469 O       7.147   33.010    4.377 O
  1470 O       4.765   33.010    4.377 O
  1471 Si      5.956   33.698    7.781 Si
  1472 O       7.147   33.010    8.267 O
  1473 O       4.765   33.010    8.267 O
  1474 O       5.956   35.073    8.267 O
  1475 Si      5.956   36.449    8.753 Si
  1476 O       5.956   36.449   10.212 O
  1477 O       3.573   37.824    6.322 O
  1478 Si      3.573   37.824    0.000 Si
  1479 O       3.573   39.199    0.486 O
  1480 Si      3.573   -0.725    0.973 Si
  1481 O       4.765   37.136    0.486 O
  1482 O       2.382   37.136    0.486 O
  1483 O       3.573   -0.725    2.431 O
  1484 Si      3.573   -0.725    3.890 Si
  1485 O       3.573   39.199    4.377 O
  1486 Si      3.573   37.824    4.863 Si
  1487 O       4.765   37.136    4.377 O
  1488 O       2.382   37.136    4.377 O
  1489 Si      3.573   37.824    7.781 Si
  1490 O       4.765   37.136    8.267 O
  1491 O       2.382   37.136    8.267 O
  1492 O       3.573   39.199    8.267 O
  1493 Si      3.573   -0.725    8.753 Si
  1494 O       3.573   -0.725   10.212 O
  1495 O       8.338   37.824    6.322 O
  1496 Si      8.338   37.824    0.000 Si
  1497 O       8.338   39.199    0.486 O
  1498 Si      8.338   -0.725    0.973 Si
  1499 O       9.529   37.136    0.486 O
  1500 O       7.147   37.136    0.486 O
  1501 O       8.338   -0.725    2.431 O
  1502 Si      8.338   -0.725    3.890 Si
  1503 O       8.338   39.199    4.377 O
  1504 Si      8.338   37.824    4.863 Si
  1505 O       9.529   37.136    4.377 O
  1506 O       7.147   37.136    4.377 O
  1507 Si      8.338   37.824    7.781 Si
  1508 O       9.529   37.136    8.267 O
  1509 O       7.147   37.136    8.267 O
  1510 O       8.338   39.199    8.267 O
  1511 Si      8.338   -0.725    8.753 Si
  1512 O       8.338   -0.725   10.212 O
  1513 O      10.720   33.698    6.322 O
  1514 Si     10.720   33.698    0.000 Si
  1515 O      10.720   35.073    0.486 O
  1516 Si     10.720   36.449    0.973 Si
  1517 O      11.912   33.010    0.486 O
  1518 O       9.529   33.010    0.486 O
  1519 O      10.720   36.449    2.431 O
  1520 Si     10.720   36.449    3.890 Si
  1521 O      10.720   35.073    4.377 O
  1522 Si     10.720   33.698    4.863 Si
  1523 O      11.912   33.010    4.377 O
  1524 O       9.529   33.010    4.377 O
  1525 Si     10.720   33.698    7.781 Si
  1526 O      11.912   33.010    8.267 O
  1527 O       9.529   33.010    8.267 O
  1528 O      10.720   35.073    8.267 O
  1529 Si     10.720   36.449    8.753 Si
  1530 O      10.720   36.449   10.212 O
  1531 O      15.485   33.698    6.322 O
  1532 Si     15.485   33.698    0.000 Si
  1533 O      15.485   35.073    0.486 O
  1534 Si     15.485   36.449    0.973 Si
  1535 O      16.676   33.010    0.486 O
  1536 O      14.294   33.010    0.486 O
  1537 O      15.485   36.449    2.431 O
  1538 Si     15.485   36.449    3.890 Si
  1539 O      15.485   35.073    4.377 O
  1540 Si     15.485   33.698    4.863 Si
  1541 O      16.676   33.010    4.377 O
  1542 O      14.294   33.010    4.377 O
  1543 Si     15.485   33.698    7.781 Si
  1544 O      16.676   33.010    8.267 O
  1545 O      14.294   33.010    8.267 O
  1546 O      15.485   35.073    8.267 O
  1547 Si     15.485   36.449    8.753 Si
  1548 O      15.485   36.449   10.212 O
  1549 O      13.103   37.824    6.322 O
  1550 Si     13.103   37.824    0.000 Si
  1551 O      13.103   39.199    0.486 O
  1552 Si     13.103   -0.725    0.973 Si
  1553 O      14.294   37.136    0.486 O
  1554 O      11.912   37.136    0.486 O
  1555 O      13.103   -0.725    2.431 O
  1556 Si     13.103   -0.725    3.890 Si
  1557 O      13.103   39.199    4.377 O
  1558 Si     13.103   37.824    4.863 Si
  1559 O      14.294   37.136    4.377 O
  1560 O      11.912   37.136    4.377 O
  1561 Si     13.103   37.824    7.781 Si
  1562 O      14.294   37.136    8.267 O
  1563 O      11.912   37.136    8.267 O
  1564 O      13.103   39.199    8.267 O
  1565 Si     13.103   -0.725    8.753 Si
  1566 O      13.103   -0.725   10.212 O
  1567 O      17.867   37.824    6.322 O
  1568 Si     17.867   37.824    0.000 Si
  1569 O      17.867   39.199    0.486 O
  1570 Si     17.867   -0.725    0.973 Si
  1571 O      19.058   37.136    0.486 O
  1572 O      16.676   37.136    0.486 O
  1573 O      17.867   -0.725    2.431 O
  1574 Si     17.867   -0.725    3.890 Si
  1575 O      17.867   39.199    4.377 O
  1576 Si     17.867   37.824    4.863 Si
  1577 O      19.058   37.136    4.377 O
  1578 O      16.676   37.136    4.377 O
  1579 Si     17.867   37.824    7.781 Si
  1580 O      19.058   37.136    8.267 O
  1581 O      16.676   37.136    8.267 O
  1582 O      17.867   39.199    8.267 O
  1583 Si     17.867   -0.725    8.753 Si
  1584 O      17.867   -0.725   10.212 O
  1585 O      20.250   33.698    6.322 O
  1586 Si     20.250   33.698    0.000 Si
  1587 O      20.250   35.073    0.486 O
  1588 Si     20.250   36.449    0.973 Si
  1589 O      21.441   33.010    0.486 O
  1590 O      19.058   33.010    0.486 O
  1591 O      20.250   36.449    2.431 O
  1592 Si     20.250   36.449    3.890 Si
  1593 O      20.250   35.073    4.377 O
  1594 Si     20.250   33.698    4.863 Si
  1595 O      21.441   33.010    4.377 O
  1596 O      19.058   33.010    4.377 O
  1597 Si     20.250   33.698    7.781 Si
  1598 O      21.441   33.010    8.267 O
  1599 O      19.058   33.010    8.267 O
  1600 O      20.250   35.073    8.267 O
  1601 Si     20.250   36.449    8.753 Si
  1602 O      20.250   36.449   10.212 O
  1603 O      25.014   33.698    6.322 O
  1604 Si     25.014   33.698    0.000 Si
  1605 O      25.014   35.073    0.486 O
  1606 Si     25.014   36.449    0.973 Si
  1607 O      26.205   33.010    0.486 O
  1608 O      23.823   33.010    0.486 O
  1609 O      25.014   36.449    2.431 O
  1610 Si     25.014   36.449    3.890 Si
  1611 O      25.014   35.073    4.377 O
  1612 Si     25.014   33.698    4.863 Si
  1613 O      26.205   33.010    4.377 O
  1614 O      23.823   33.010    4.377 O
  1615 Si     25.014   33.698    7.781 Si
  1616 O      26.205   33.010    8.267 O
  1617 O      23.823   33.010    8.267 O
  1618 O      25.014   35.073    8.267 O
  1619 Si     25.014   36.449    8.753 Si
  1620 O      25.014   36.449   10.212 O
  1621 O      22.632   37.824    6.322 O
  1622 Si     22.632   37.824    0.000 Si
  1623 O      22.632   39.199    0.486 O
  1624 Si     22.632   -0.725    0.973 Si
  1625 O      23.823   37.136    0.486 O
  1626 O      21.441   37.136    0.486 O
  1627 O      22.632   -0.725    2.431 O
  1628 Si     22.632   -0.725    3.890 Si
  1629 O      22.632   39.199    4.377 O
  1630 Si     22.632   37.824    4.863 Si
  1631 O      23.823   37.136    4.377 O
  1632 O      21.441   37.136    4.377 O
  1633 Si     22.632   37.824    7.781 Si
  1634 O      23.823   37.136    8.267 O
  1635 O      21.441   37.136    8.267 O
  1636 O      22.632   39.199    8.267 O
  1637 Si     22.632   -0.725    8.753 Si
  1638 O      22.632   -0.725   10.212 O
  1639 O      27.396   37.824    6.322 O
  1640 Si     27.396   37.824    0.000 Si
  1641 O      27.396   39.199    0.486 O
  1642 Si     27.396   -0.725    0.973 Si
  1643 O      28.587   37.136    0.486 O
  1644 O      26.205   37.136    0.486 O
  1645 O      27.396   -0.725    2.431 O
  1646 Si     27.396   -0.725    3.890 Si
  1647 O      27.396   39.199    4.377 O
  1648 Si     27.396   37.824    4.863 Si
  1649 O      28.587   37.136    4.377 O
  1650 O      26.205   37.136    4.377 O
  1651 Si     27.396   37.824    7.781 Si
  1652 O      28.587   37.136    8.267 O
  1653 O      26.205   37.136    8.267 O
  1654 O      27.396   39.199    8.267 O
  1655 Si     27.396   -0.725    8.753 Si
  1656 O      27.396   -0.725   10.212 O
  1657 O      29.779   33.698    6.322 O
  1658 Si     29.779   33.698    0.000 Si
  1659 O      29.779   35.073    0.486 O
  1660 Si     29.779   36.449    0.973 Si
  1661 O      30.970   33.010    0.486 O
  1662 O      28.587   33.010    0.486 O
  1663 O      29.779   36.449    2.431 O
  1664 Si     29.779   36.449    3.890 Si
  1665 O      29.779   35.073    4.377 O
  1666 Si     29.779   33.698    4.863 Si
  1667 O      30.970   33.010    4.377 O
  1668 O      28.587   33.010    4.377 O
  1669 Si     29.779   33.698    7.781 Si
  1670 O      30.970   33.010    8.267 O
  1671 O      28.587   33.010    8.267 O
  1672 O      29.779   35.073    8.267 O
  1673 Si     29.779   36.449    8.753 Si
  1674 O      29.779   36.449   10.212 O
  1675 O      34.543   33.698    6.322 O
  1676 Si     34.543   33.698    0.000 Si
  1677 O      34.543   35.073    0.486 O
  1678 Si     34.543   36.449    0.973 Si
  1679 O      35.734   33.010    0.486 O
  1680 O      33.352   33.010    0.486 O
  1681 O      34.543   36.449    2.431 O
  1682 Si     34.543   36.449    3.890 Si
  1683 O      34.543   35.073    4.377 O
  1684 Si     34.543   33.698    4.863 Si
  1685 O      35.734   33.010    4.377 O
  1686 O      33.352   33.010    4.377 O
  1687 Si     34.543   33.698    7.781 Si
  1688 O      35.734   33.010    8.267 O
  1689 O      33.352   33.010    8.267 O
  1690 O      34.543   35.073    8.267 O
  1691 Si     34.543   36.449    8.753 Si
  1692 O      34.543   36.449   10.212 O
  1693 O      32.161   37.824    6.322 O
  1694 Si     32.161   37.824    0.000 Si
  1695 O      32.161   39.199    0.486 O
  1696 Si     32.161   -0.725    0.973 Si
  1697 O      33.352   37.136    0.486 O
  1698 O      30.970   37.136    0.486 O
  1699 O      32.161   -0.725    2.431 O
  1700 Si     32.161   -0.725    3.890 Si
  1701 O      32.161   39.199    4.377 O
  1702 Si     32.161   37.824    4.863 Si
  1703 O      33.352   37.136    4.377 O
  1704 O      30.970   37.136    4.377 O
  1705 Si     32.161   37.824    7.781 Si
  1706 O      33.352   37.136    8.267 O
  1707 O      30.970   37.136    8.267 O
  1708 O      32.161   39.199    8.267 O
  1709 Si     32.161   -0.725    8.753 Si
  1710 O      32.161   -0.725   10.212 O
  1711 O      36.925   37.824    6.322 O
  1712 Si     36.925   37.824    0.000 Si
  1713 O      36.925   39.199    0.486 O
  1714 Si     36.925   -0.725    0.973 Si
  1715 O      38.117   37.136    0.486 O
  1716 O      35.734   37.136    0.486 O
  1717 O      36.925   -0.725    2.431 O
  1718 Si     36.925   -0.725    3.890 Si
  1719 O      36.925   39.199    4.377 O
  1720 Si     36.925   37.824    4.863 Si
  1721 O      38.117   37.136    4.377 O
  1722 O      35.734   37.136    4.377 O
  1723 Si     36.925   37.824    7.781 Si
  1724 O      38.117   37.136    8.267 O
  1725 O      35.734   37.136    8.267 O
  1726 O      36.925   39.199    8.267 O
  1727 Si     36.925   -0.725    8.753 Si
  1728 O      36.925   -0.725   10.212 O
  1729 O      39.308   33.698    6.322 O
  1730 Si     39.308   33.698    0.000 Si
  1731 O      39.308   35.073    0.486 O
  1732 Si     39.308   36.449    0.973 Si
  1733 O      40.499   33.010    0.486 O
  1734 O      38.117   33.010    0.486 O
  1735 O      39.308   36.449    2.431 O
  1736 Si     39.308   36.449    3.890 Si
  1737 O      39.308   35.073    4.377 O
  1738 Si     39.308   33.698    4.863 Si
  1739 O      40.499   33.010    4.377 O
  1740 O      38.117   33.010    4.377 O
  1741 Si     39.308   33.698    7.781 Si
  1742 O      40.499   33.010    8.267 O
  1743 O      38.117   33.010    8.267 O
  1744 O      39.308   35.073    8.267 O
  1745 Si     39.308   36.449    8.753 Si
  1746 O      39.308   36.449   10.212 O
  1747 O      44.072   33.698    6.322 O
  1748 Si     44.072   33.698    0.000 Si
  1749 O      44.072   35.073    0.486 O
  1750 Si     44.072   36.449    0.973 Si
  1751 O      45.264   33.010    0.486 O
  1752 O      42.881   33.010    0.486 O
  1753 O      44.072   36.449    2.431 O
  1754 Si     44.072   36.449    3.890 Si
  1755 O      44.072   35.073    4.377 O
  1756 Si     44.072   33.698    4.863 Si
  1757 O      45.264   33.010    4.377 O
  1758 O      42.881   33.010    4.377 O
  1759 Si     44.072   33.698    7.781 Si
  1760 O      45.264   33.010    8.267 O
  1761 O      42.881   33.010    8.267 O
  1762 O      44.072   35.073    8.267 O
  1763 Si     44.072   36.449    8.753 Si
  1764 O      44.072   36.449   10.212 O
  1765 O      41.690   37.824    6.322 O
  1766 Si     41.690   37.824    0.000 Si
  1767 O      41.690   39.199    0.486 O
  1768 Si     41.690   -0.725    0.973 Si
  1769 O      42.881   37.136    0.486 O
  1770 O      40.499   37.136    0.486 O
  1771 O      41.690   -0.725    2.431 O
  1772 Si     41.690   -0.725    3.890 Si
  1773 O      41.690   39.199    4.377 O
  1774 Si     41.690   37.824    4.863 Si
  1775 O      42.881   37.136    4.377 O
  1776 O      40.499   37.136    4.377 O
  1777 Si     41.690   37.824    7.781 Si
  1778 O      42.881   37.136    8.267 O
  1779 O      40.499   37.136    8.267 O
  1780 O      41.690   39.199    8.267 O
  1781 Si     41.690   -0.725    8.753 Si
  1782 O      41.690   -0.725   10.212 O
  1783 O      46.455   37.824    6.322 O
  1784 Si     46.455   37.824    0.000 Si
  1785 O      46.455   39.199    0.486 O
  1786 Si     46.455   -0.725    0.973 Si
  1787 O      -0.043   37.136    0.486 O
  1788 O      45.264   37.136    0.486 O
  1789 O      46.455   -0.725    2.431 O
  1790 Si     46.455   -0.725    3.890 Si
  1791 O      46.455   39.199    4.377 O
  1792 Si     46.455   37.824    4.863 Si
  1793 O      -0.043   37.136    4.377 O
  1794 O      45.264   37.136    4.377 O
  1795 Si     46.455   37.824    7.781 Si
  1796 O      -0.043   37.136    8.267 O
  1797 O      45.264   37.136    8.267 O
  1798 O      46.455   39.199    8.267 O
  1799 Si     46.455   -0.725    8.753 Si
  1800 O      46.455   -0.725   10.212 O
@<TRIPOS>BOND
     1      2      5 1
     2      2      6 1
     3      2      3 1
     4      4      3 1
     5      4     42 1
     6      4      7 1
     7      4    347 1
     8      8      9 1
     9      8     48 1
    10      8      7 1
    11      8    353 1
    12     10     11 1
    13     10      1 1
    14     10     12 1
    15     10      9 1
    16     13     14 1
    17     13      1 1
    18     13     15 1
    19     13     16 1
    20     17     16 1
    21     17     51 1
    22     17     18 1
    23     17    356 1
    24     20     24 1
    25     20     23 1
    26     20     21 1
    27     22     21 1
    28     22     41 1
    29     22     25 1
    30     22     60 1
    31     26     27 1
    32     26     47 1
    33     26     25 1
    34     26     66 1
    35     28     30 1
    36     28     19 1
    37     28     29 1
    38     28     27 1
    39     31     33 1
    40     31     19 1
    41     31     32 1
    42     31     34 1
    43     35     34 1
    44     35     50 1
    45     35     69 1
    46     35     36 1
    47     38     39 1
    48     38     41 1
    49     38     42 1
    50     40     39 1
    51     40     43 1
    52     40    384 1
    53     40    365 1
    54     44     43 1
    55     44     45 1
    56     44    390 1
    57     44    371 1
    58     46     37 1
    59     46     45 1
    60     46     47 1
    61     46     48 1
    62     49     37 1
    63     49     52 1
    64     49     50 1
    65     49     51 1
    66     53     52 1
    67     53    393 1
    68     53    374 1
    69     53     54 1
    70     56     59 1
    71     56     57 1
    72     56     60 1
    73     58    438 1
    74     58     57 1
    75     58     61 1
    76     58    383 1
    77     62    444 1
    78     62     61 1
    79     62     63 1
    80     62    389 1
    81     64     65 1
    82     64     55 1
    83     64     63 1
    84     64     66 1
    85     67     68 1
    86     67     55 1
    87     67     70 1
    88     67     69 1
    89     71    447 1
    90     71     70 1
    91     71    392 1
    92     71     72 1
    93     74     78 1
    94     74     75 1
    95     74     77 1
    96     76     59 1
    97     76     75 1
    98     76     79 1
    99     76    114 1
   100     80     65 1
   101     80     81 1
   102     80     79 1
   103     80    120 1
   104     82     84 1
   105     82     73 1
   106     82     81 1
   107     82     83 1
   108     85     87 1
   109     85     73 1
   110     85     88 1
   111     85     86 1
   112     89     68 1
   113     89     88 1
   114     89     90 1
   115     89    123 1
   116     92     96 1
   117     92     93 1
   118     92     95 1
   119     94    113 1
   120     94     93 1
   121     94     97 1
   122     94    132 1
   123     98    119 1
   124     98     99 1
   125     98     97 1
   126     98    138 1
   127    100    102 1
   128    100     91 1
   129    100     99 1
   130    100    101 1
   131    103    105 1
   132    103     91 1
   133    103    106 1
   134    103    104 1
   135    107    122 1
   136    107    106 1
   137    107    108 1
   138    107    141 1
   139    110    114 1
   140    110    111 1
   141    110    113 1
   142    112    437 1
   143    112    111 1
   144    112    115 1
   145    112    456 1
   146    116    443 1
   147    116    115 1
   148    116    117 1
   149    116    462 1
   150    118    120 1
   151    118    109 1
   152    118    117 1
   153    118    119 1
   154    121    123 1
   155    121    109 1
   156    121    124 1
   157    121    122 1
   158    125    446 1
   159    125    124 1
   160    125    126 1
   161    125    465 1
   162    128    131 1
   163    128    132 1
   164    128    129 1
   165    130    455 1
   166    130    510 1
   167    130    129 1
   168    130    133 1
   169    134    461 1
   170    134    516 1
   171    134    133 1
   172    134    135 1
   173    136    137 1
   174    136    138 1
   175    136    127 1
   176    136    135 1
   177    139    140 1
   178    139    141 1
   179    139    127 1
   180    139    142 1
   181    143    464 1
   182    143    519 1
   183    143    142 1
   184    143    144 1
   185    146    149 1
   186    146    147 1
   187    146    150 1
   188    148    186 1
   189    148    147 1
   190    148    151 1
   191    148    131 1
   192    152    192 1
   193    152    153 1
   194    152    151 1
   195    152    137 1
   196    154    155 1
   197    154    145 1
   198    154    153 1
   199    154    156 1
   200    157    158 1
   201    157    145 1
   202    157    160 1
   203    157    159 1
   204    161    195 1
   205    161    160 1
   206    161    162 1
   207    161    140 1
   208    164    167 1
   209    164    165 1
   210    164    168 1
   211    166    204 1
   212    166    165 1
   213    166    169 1
   214    166    185 1
   215    170    210 1
   216    170    171 1
   217    170    169 1
   218    170    191 1
   219    172    173 1
   220    172    163 1
   221    172    171 1
   222    172    174 1
   223    175    176 1
   224    175    163 1
   225    175    178 1
   226    175    177 1
   227    179    213 1
   228    179    178 1
   229    179    180 1
   230    179    194 1
   231    182    185 1
   232    182    183 1
   233    182    186 1
   234    184    528 1
   235    184    183 1
   236    184    187 1
   237    184    509 1
   238    188    534 1
   239    188    187 1
   240    188    189 1
   241    188    515 1
   242    190    191 1
   243    190    181 1
   244    190    189 1
   245    190    192 1
   246    193    194 1
   247    193    181 1
   248    193    196 1
   249    193    195 1
   250    197    537 1
   251    197    196 1
   252    197    198 1
   253    197    518 1
   254    200    203 1
   255    200    201 1
   256    200    204 1
   257    202    582 1
   258    202    201 1
   259    202    205 1
   260    202    527 1
   261    206    588 1
   262    206    205 1
   263    206    207 1
   264    206    533 1
   265    208    209 1
   266    208    199 1
   267    208    207 1
   268    208    210 1
   269    211    212 1
   270    211    199 1
   271    211    214 1
   272    211    213 1
   273    215    591 1
   274    215    214 1
   275    215    216 1
   276    215    536 1
   277    218    221 1
   278    218    219 1
   279    218    222 1
   280    220    258 1
   281    220    219 1
   282    220    223 1
   283    220    203 1
   284    224    264 1
   285    224    225 1
   286    224    223 1
   287    224    209 1
   288    226    227 1
   289    226    217 1
   290    226    225 1
   291    226    228 1
   292    229    230 1
   293    229    217 1
   294    229    232 1
   295    229    231 1
   296    233    267 1
   297    233    232 1
   298    233    234 1
   299    233    212 1
   300    236    239 1
   301    236    237 1
   302    236    240 1
   303    238    276 1
   304    238    237 1
   305    238    241 1
   306    238    257 1
   307    242    282 1
   308    242    243 1
   309    242    241 1
   310    242    263 1
   311    244    245 1
   312    244    235 1
   313    244    243 1
   314    244    246 1
   315    247    248 1
   316    247    235 1
   317    247    250 1
   318    247    249 1
   319    251    285 1
   320    251    250 1
   321    251    252 1
   322    251    266 1
   323    254    257 1
   324    254    255 1
   325    254    258 1
   326    256    600 1
   327    256    255 1
   328    256    259 1
   329    256    581 1
   330    260    606 1
   331    260    259 1
   332    260    261 1
   333    260    587 1
   334    262    263 1
   335    262    253 1
   336    262    261 1
   337    262    264 1
   338    265    266 1
   339    265    253 1
   340    265    268 1
   341    265    267 1
   342    269    609 1
   343    269    268 1
   344    269    270 1
   345    269    590 1
   346    272    276 1
   347    272    273 1
   348    272    275 1
   349    274    599 1
   350    274    273 1
   351    274    277 1
   352    274    654 1
   353    278    605 1
   354    278    277 1
   355    278    279 1
   356    278    660 1
   357    280    282 1
   358    280    271 1
   359    280    279 1
   360    280    281 1
   361    283    285 1
   362    283    271 1
   363    283    286 1
   364    283    284 1
   365    287    608 1
   366    287    286 1
   367    287    288 1
   368    287    663 1
   369    290    294 1
   370    290    291 1
   371    290    293 1
   372    292    275 1
   373    292    291 1
   374    292    295 1
   375    292    330 1
   376    296    281 1
   377    296    297 1
   378    296    295 1
   379    296    336 1
   380    298    300 1
   381    298    289 1
   382    298    297 1
   383    298    299 1
   384    301    303 1
   385    301    289 1
   386    301    304 1
   387    301    302 1
   388    305    284 1
   389    305    304 1
   390    305    306 1
   391    305    339 1
   392    308    312 1
   393    308    309 1
   394    308    311 1
   395    310    329 1
   396    310    309 1
   397    310    313 1
   398    310    348 1
   399    314    335 1
   400    314    315 1
   401    314    313 1
   402    314    354 1
   403    316    318 1
   404    316    307 1
   405    316    315 1
   406    316    317 1
   407    319    321 1
   408    319    307 1
   409    319    322 1
   410    319    320 1
   411    323    338 1
   412    323    322 1
   413    323    324 1
   414    323    357 1
   415    326    330 1
   416    326    327 1
   417    326    329 1
   418    328    653 1
   419    328    327 1
   420    328    331 1
   421    328    672 1
   422    332    659 1
   423    332    331 1
   424    332    333 1
   425    332    678 1
   426    334    336 1
   427    334    325 1
   428    334    333 1
   429    334    335 1
   430    337    339 1
   431    337    325 1
   432    337    340 1
   433    337    338 1
   434    341    662 1
   435    341    340 1
   436    341    342 1
   437    341    681 1
   438    344    348 1
   439    344    345 1
   440    344    347 1
   441    346    671 1
   442    346    345 1
   443    346    349 1
   444    346    366 1
   445    350    677 1
   446    350    349 1
   447    350    351 1
   448    350    372 1
   449    352    354 1
   450    352    343 1
   451    352    351 1
   452    352    353 1
   453    355    357 1
   454    355    343 1
   455    355    358 1
   456    355    356 1
   457    359    680 1
   458    359    358 1
   459    359    360 1
   460    359    375 1
   461    362    363 1
   462    362    365 1
   463    362    366 1
   464    364    402 1
   465    364    367 1
   466    364    363 1
   467    364    707 1
   468    368    408 1
   469    368    367 1
   470    368    369 1
   471    368    713 1
   472    370    369 1
   473    370    371 1
   474    370    361 1
   475    370    372 1
   476    373    376 1
   477    373    374 1
   478    373    361 1
   479    373    375 1
   480    377    411 1
   481    377    378 1
   482    377    376 1
   483    377    716 1
   484    380    381 1
   485    380    384 1
   486    380    383 1
   487    382    401 1
   488    382    420 1
   489    382    385 1
   490    382    381 1
   491    386    407 1
   492    386    426 1
   493    386    385 1
   494    386    387 1
   495    388    387 1
   496    388    390 1
   497    388    379 1
   498    388    389 1
   499    391    394 1
   500    391    393 1
   501    391    379 1
   502    391    392 1
   503    395    410 1
   504    395    429 1
   505    395    396 1
   506    395    394 1
   507    398    399 1
   508    398    401 1
   509    398    402 1
   510    400    399 1
   511    400    744 1
   512    400    725 1
   513    400    403 1
   514    404    405 1
   515    404    750 1
   516    404    731 1
   517    404    403 1
   518    406    405 1
   519    406    397 1
   520    406    407 1
   521    406    408 1
   522    409    412 1
   523    409    410 1
   524    409    411 1
   525    409    397 1
   526    413    412 1
   527    413    753 1
   528    413    734 1
   529    413    414 1
   530    416    417 1
   531    416    419 1
   532    416    420 1
   533    418    417 1
   534    418    798 1
   535    418    743 1
   536    418    421 1
   537    422    423 1
   538    422    804 1
   539    422    749 1
   540    422    421 1
   541    424    423 1
   542    424    425 1
   543    424    415 1
   544    424    426 1
   545    427    430 1
   546    427    428 1
   547    427    429 1
   548    427    415 1
   549    431    430 1
   550    431    807 1
   551    431    752 1
   552    431    432 1
   553    434    435 1
   554    434    438 1
   555    434    437 1
   556    436    419 1
   557    436    439 1
   558    436    474 1
   559    436    435 1
   560    440    425 1
   561    440    439 1
   562    440    480 1
   563    440    441 1
   564    442    441 1
   565    442    444 1
   566    442    433 1
   567    442    443 1
   568    445    448 1
   569    445    447 1
   570    445    433 1
   571    445    446 1
   572    449    428 1
   573    449    450 1
   574    449    483 1
   575    449    448 1
   576    452    456 1
   577    452    453 1
   578    452    455 1
   579    454    473 1
   580    454    457 1
   581    454    492 1
   582    454    453 1
   583    458    479 1
   584    458    457 1
   585    458    498 1
   586    458    459 1
   587    460    462 1
   588    460    459 1
   589    460    451 1
   590    460    461 1
   591    463    465 1
   592    463    466 1
   593    463    451 1
   594    463    464 1
   595    467    482 1
   596    467    468 1
   597    467    501 1
   598    467    466 1
   599    470    474 1
   600    470    471 1
   601    470    473 1
   602    472    797 1
   603    472    471 1
   604    472    475 1
   605    472    816 1
   606    476    803 1
   607    476    477 1
   608    476    475 1
   609    476    822 1
   610    478    480 1
   611    478    477 1
   612    478    469 1
   613    478    479 1
   614    481    483 1
   615    481    484 1
   616    481    469 1
   617    481    482 1
   618    485    806 1
   619    485    484 1
   620    485    486 1
   621    485    825 1
   622    488    491 1
   623    488    492 1
   624    488    489 1
   625    490    815 1
   626    490    870 1
   627    490    489 1
   628    490    493 1
   629    494    821 1
   630    494    876 1
   631    494    495 1
   632    494    493 1
   633    496    497 1
   634    496    498 1
   635    496    495 1
   636    496    487 1
   637    499    500 1
   638    499    501 1
   639    499    502 1
   640    499    487 1
   641    503    824 1
   642    503    879 1
   643    503    502 1
   644    503    504 1
   645    506    509 1
   646    506    507 1
   647    506    510 1
   648    508    546 1
   649    508    511 1
   650    508    491 1
   651    508    507 1
   652    512    552 1
   653    512    511 1
   654    512    497 1
   655    512    513 1
   656    514    515 1
   657    514    513 1
   658    514    505 1
   659    514    516 1
   660    517    518 1
   661    517    520 1
   662    517    505 1
   663    517    519 1
   664    521    555 1
   665    521    522 1
   666    521    500 1
   667    521    520 1
   668    524    527 1
   669    524    525 1
   670    524    528 1
   671    526    564 1
   672    526    529 1
   673    526    545 1
   674    526    525 1
   675    530    570 1
   676    530    529 1
   677    530    551 1
   678    530    531 1
   679    532    533 1
   680    532    531 1
   681    532    523 1
   682    532    534 1
   683    535    536 1
   684    535    538 1
   685    535    523 1
   686    535    537 1
   687    539    573 1
   688    539    540 1
   689    539    554 1
   690    539    538 1
   691    542    545 1
   692    542    543 1
   693    542    546 1
   694    544    888 1
   695    544    543 1
   696    544    547 1
   697    544    869 1
   698    548    894 1
   699    548    549 1
   700    548    547 1
   701    548    875 1
   702    550    551 1
   703    550    549 1
   704    550    541 1
   705    550    552 1
   706    553    554 1
   707    553    556 1
   708    553    541 1
   709    553    555 1
   710    557    897 1
   711    557    556 1
   712    557    558 1
   713    557    878 1
   714    560    563 1
   715    560    561 1
   716    560    564 1
   717    562    942 1
   718    562    561 1
   719    562    565 1
   720    562    887 1
   721    566    948 1
   722    566    567 1
   723    566    565 1
   724    566    893 1
   725    568    569 1
   726    568    567 1
   727    568    559 1
   728    568    570 1
   729    571    572 1
   730    571    574 1
   731    571    559 1
   732    571    573 1
   733    575    951 1
   734    575    574 1
   735    575    576 1
   736    575    896 1
   737    578    581 1
   738    578    579 1
   739    578    582 1
   740    580    618 1
   741    580    583 1
   742    580    563 1
   743    580    579 1
   744    584    624 1
   745    584    583 1
   746    584    569 1
   747    584    585 1
   748    586    587 1
   749    586    585 1
   750    586    577 1
   751    586    588 1
   752    589    590 1
   753    589    592 1
   754    589    577 1
   755    589    591 1
   756    593    627 1
   757    593    594 1
   758    593    572 1
   759    593    592 1
   760    596    599 1
   761    596    597 1
   762    596    600 1
   763    598    636 1
   764    598    601 1
   765    598    617 1
   766    598    597 1
   767    602    642 1
   768    602    601 1
   769    602    623 1
   770    602    603 1
   771    604    605 1
   772    604    603 1
   773    604    595 1
   774    604    606 1
   775    607    608 1
   776    607    610 1
   777    607    595 1
   778    607    609 1
   779    611    645 1
   780    611    612 1
   781    611    626 1
   782    611    610 1
   783    614    617 1
   784    614    615 1
   785    614    618 1
   786    616    960 1
   787    616    615 1
   788    616    619 1
   789    616    941 1
   790    620    966 1
   791    620    621 1
   792    620    619 1
   793    620    947 1
   794    622    623 1
   795    622    621 1
   796    622    613 1
   797    622    624 1
   798    625    626 1
   799    625    628 1
   800    625    613 1
   801    625    627 1
   802    629    969 1
   803    629    628 1
   804    629    630 1
   805    629    950 1
   806    632    636 1
   807    632    633 1
   808    632    635 1
   809    634    959 1
   810    634    633 1
   811    634    637 1
   812    634   1014 1
   813    638    965 1
   814    638    639 1
   815    638    637 1
   816    638   1020 1
   817    640    642 1
   818    640    639 1
   819    640    631 1
   820    640    641 1
   821    643    645 1
   822    643    646 1
   823    643    631 1
   824    643    644 1
   825    647    968 1
   826    647    646 1
   827    647    648 1
   828    647   1023 1
   829    650    654 1
   830    650    651 1
   831    650    653 1
   832    652    635 1
   833    652    655 1
   834    652    690 1
   835    652    651 1
   836    656    641 1
   837    656    655 1
   838    656    696 1
   839    656    657 1
   840    658    660 1
   841    658    657 1
   842    658    649 1
   843    658    659 1
   844    661    663 1
   845    661    664 1
   846    661    649 1
   847    661    662 1
   848    665    644 1
   849    665    666 1
   850    665    699 1
   851    665    664 1
   852    668    672 1
   853    668    669 1
   854    668    671 1
   855    670    689 1
   856    670    673 1
   857    670    708 1
   858    670    669 1
   859    674    695 1
   860    674    673 1
   861    674    714 1
   862    674    675 1
   863    676    678 1
   864    676    675 1
   865    676    667 1
   866    676    677 1
   867    679    681 1
   868    679    682 1
   869    679    667 1
   870    679    680 1
   871    683    698 1
   872    683    684 1
   873    683    717 1
   874    683    682 1
   875    686    690 1
   876    686    687 1
   877    686    689 1
   878    688   1013 1
   879    688    687 1
   880    688    691 1
   881    688   1032 1
   882    692   1019 1
   883    692    693 1
   884    692    691 1
   885    692   1038 1
   886    694    696 1
   887    694    693 1
   888    694    685 1
   889    694    695 1
   890    697    699 1
   891    697    700 1
   892    697    685 1
   893    697    698 1
   894    701   1022 1
   895    701    700 1
   896    701    702 1
   897    701   1041 1
   898    704    708 1
   899    704    705 1
   900    704    707 1
   901    706   1031 1
   902    706    705 1
   903    706    709 1
   904    706    726 1
   905    710   1037 1
   906    710    711 1
   907    710    709 1
   908    710    732 1
   909    712    714 1
   910    712    711 1
   911    712    703 1
   912    712    713 1
   913    715    717 1
   914    715    718 1
   915    715    703 1
   916    715    716 1
   917    719   1040 1
   918    719    718 1
   919    719    720 1
   920    719    735 1
   921    722    723 1
   922    722    725 1
   923    722    726 1
   924    724    762 1
   925    724    727 1
   926    724    723 1
   927    724   1067 1
   928    728    768 1
   929    728    727 1
   930    728    729 1
   931    728   1073 1
   932    730    729 1
   933    730    731 1
   934    730    721 1
   935    730    732 1
   936    733    736 1
   937    733    734 1
   938    733    735 1
   939    733    721 1
   940    737    771 1
   941    737    738 1
   942    737    736 1
   943    737   1076 1
   944    740    741 1
   945    740    744 1
   946    740    743 1
   947    742    761 1
   948    742    780 1
   949    742    745 1
   950    742    741 1
   951    746    767 1
   952    746    786 1
   953    746    745 1
   954    746    747 1
   955    748    747 1
   956    748    750 1
   957    748    739 1
   958    748    749 1
   959    751    754 1
   960    751    753 1
   961    751    752 1
   962    751    739 1
   963    755    770 1
   964    755    789 1
   965    755    756 1
   966    755    754 1
   967    758    759 1
   968    758    761 1
   969    758    762 1
   970    760    759 1
   971    760   1104 1
   972    760   1085 1
   973    760    763 1
   974    764    765 1
   975    764   1110 1
   976    764   1091 1
   977    764    763 1
   978    766    765 1
   979    766    757 1
   980    766    767 1
   981    766    768 1
   982    769    772 1
   983    769    770 1
   984    769    771 1
   985    769    757 1
   986    773    772 1
   987    773   1113 1
   988    773   1094 1
   989    773    774 1
   990    776    777 1
   991    776    779 1
   992    776    780 1
   993    778    777 1
   994    778   1158 1
   995    778   1103 1
   996    778    781 1
   997    782    783 1
   998    782   1164 1
   999    782   1109 1
  1000    782    781 1
  1001    784    783 1
  1002    784    785 1
  1003    784    775 1
  1004    784    786 1
  1005    787    790 1
  1006    787    788 1
  1007    787    789 1
  1008    787    775 1
  1009    791    790 1
  1010    791   1167 1
  1011    791   1112 1
  1012    791    792 1
  1013    794    798 1
  1014    794    795 1
  1015    794    797 1
  1016    796    779 1
  1017    796    799 1
  1018    796    834 1
  1019    796    795 1
  1020    800    785 1
  1021    800    799 1
  1022    800    840 1
  1023    800    801 1
  1024    802    804 1
  1025    802    801 1
  1026    802    793 1
  1027    802    803 1
  1028    805    807 1
  1029    805    808 1
  1030    805    793 1
  1031    805    806 1
  1032    809    788 1
  1033    809    810 1
  1034    809    843 1
  1035    809    808 1
  1036    812    816 1
  1037    812    813 1
  1038    812    815 1
  1039    814    833 1
  1040    814    817 1
  1041    814    852 1
  1042    814    813 1
  1043    818    839 1
  1044    818    817 1
  1045    818    858 1
  1046    818    819 1
  1047    820    822 1
  1048    820    819 1
  1049    820    811 1
  1050    820    821 1
  1051    823    825 1
  1052    823    826 1
  1053    823    811 1
  1054    823    824 1
  1055    827    842 1
  1056    827    828 1
  1057    827    861 1
  1058    827    826 1
  1059    830    834 1
  1060    830    831 1
  1061    830    833 1
  1062    832   1157 1
  1063    832    831 1
  1064    832    835 1
  1065    832   1176 1
  1066    836   1163 1
  1067    836    837 1
  1068    836    835 1
  1069    836   1182 1
  1070    838    840 1
  1071    838    837 1
  1072    838    829 1
  1073    838    839 1
  1074    841    843 1
  1075    841    844 1
  1076    841    829 1
  1077    841    842 1
  1078    845   1166 1
  1079    845    844 1
  1080    845    846 1
  1081    845   1185 1
  1082    848    851 1
  1083    848    852 1
  1084    848    849 1
  1085    850   1175 1
  1086    850   1230 1
  1087    850    849 1
  1088    850    853 1
  1089    854   1181 1
  1090    854   1236 1
  1091    854    855 1
  1092    854    853 1
  1093    856    857 1
  1094    856    858 1
  1095    856    855 1
  1096    856    847 1
  1097    859    860 1
  1098    859    861 1
  1099    859    862 1
  1100    859    847 1
  1101    863   1184 1
  1102    863   1239 1
  1103    863    862 1
  1104    863    864 1
  1105    866    869 1
  1106    866    867 1
  1107    866    870 1
  1108    868    906 1
  1109    868    871 1
  1110    868    851 1
  1111    868    867 1
  1112    872    912 1
  1113    872    871 1
  1114    872    857 1
  1115    872    873 1
  1116    874    875 1
  1117    874    873 1
  1118    874    865 1
  1119    874    876 1
  1120    877    878 1
  1121    877    880 1
  1122    877    865 1
  1123    877    879 1
  1124    881    915 1
  1125    881    882 1
  1126    881    860 1
  1127    881    880 1
  1128    884    887 1
  1129    884    885 1
  1130    884    888 1
  1131    886    924 1
  1132    886    889 1
  1133    886    905 1
  1134    886    885 1
  1135    890    930 1
  1136    890    889 1
  1137    890    911 1
  1138    890    891 1
  1139    892    893 1
  1140    892    891 1
  1141    892    883 1
  1142    892    894 1
  1143    895    896 1
  1144    895    898 1
  1145    895    883 1
  1146    895    897 1
  1147    899    933 1
  1148    899    900 1
  1149    899    914 1
  1150    899    898 1
  1151    902    905 1
  1152    902    903 1
  1153    902    906 1
  1154    904   1248 1
  1155    904    903 1
  1156    904    907 1
  1157    904   1229 1
  1158    908   1254 1
  1159    908    909 1
  1160    908    907 1
  1161    908   1235 1
  1162    910    911 1
  1163    910    909 1
  1164    910    901 1
  1165    910    912 1
  1166    913    914 1
  1167    913    916 1
  1168    913    901 1
  1169    913    915 1
  1170    917   1257 1
  1171    917    916 1
  1172    917    918 1
  1173    917   1238 1
  1174    920    923 1
  1175    920    921 1
  1176    920    924 1
  1177    922   1302 1
  1178    922    921 1
  1179    922    925 1
  1180    922   1247 1
  1181    926   1308 1
  1182    926    927 1
  1183    926    925 1
  1184    926   1253 1
  1185    928    929 1
  1186    928    927 1
  1187    928    919 1
  1188    928    930 1
  1189    931    932 1
  1190    931    934 1
  1191    931    919 1
  1192    931    933 1
  1193    935   1311 1
  1194    935    934 1
  1195    935    936 1
  1196    935   1256 1
  1197    938    941 1
  1198    938    939 1
  1199    938    942 1
  1200    940    978 1
  1201    940    943 1
  1202    940    923 1
  1203    940    939 1
  1204    944    984 1
  1205    944    943 1
  1206    944    929 1
  1207    944    945 1
  1208    946    947 1
  1209    946    945 1
  1210    946    937 1
  1211    946    948 1
  1212    949    950 1
  1213    949    952 1
  1214    949    937 1
  1215    949    951 1
  1216    953    987 1
  1217    953    954 1
  1218    953    932 1
  1219    953    952 1
  1220    956    959 1
  1221    956    957 1
  1222    956    960 1
  1223    958    996 1
  1224    958    961 1
  1225    958    977 1
  1226    958    957 1
  1227    962   1002 1
  1228    962    961 1
  1229    962    983 1
  1230    962    963 1
  1231    964    965 1
  1232    964    963 1
  1233    964    955 1
  1234    964    966 1
  1235    967    968 1
  1236    967    970 1
  1237    967    955 1
  1238    967    969 1
  1239    971   1005 1
  1240    971    972 1
  1241    971    986 1
  1242    971    970 1
  1243    974    977 1
  1244    974    975 1
  1245    974    978 1
  1246    976   1320 1
  1247    976    975 1
  1248    976    979 1
  1249    976   1301 1
  1250    980   1326 1
  1251    980    981 1
  1252    980    979 1
  1253    980   1307 1
  1254    982    983 1
  1255    982    981 1
  1256    982    973 1
  1257    982    984 1
  1258    985    986 1
  1259    985    988 1
  1260    985    973 1
  1261    985    987 1
  1262    989   1329 1
  1263    989    988 1
  1264    989    990 1
  1265    989   1310 1
  1266    992    996 1
  1267    992    993 1
  1268    992    995 1
  1269    994   1319 1
  1270    994    993 1
  1271    994    997 1
  1272    994   1374 1
  1273    998   1325 1
  1274    998    999 1
  1275    998    997 1
  1276    998   1380 1
  1277   1000   1002 1
  1278   1000    999 1
  1279   1000    991 1
  1280   1000   1001 1
  1281   1003   1005 1
  1282   1003   1006 1
  1283   1003    991 1
  1284   1003   1004 1
  1285   1007   1328 1
  1286   1007   1006 1
  1287   1007   1008 1
  1288   1007   1383 1
  1289   1010   1014 1
  1290   1010   1011 1
  1291   1010   1013 1
  1292   1012    995 1
  1293   1012   1015 1
  1294   1012   1050 1
  1295   1012   1011 1
  1296   1016   1001 1
  1297   1016   1015 1
  1298   1016   1056 1
  1299   1016   1017 1
  1300   1018   1020 1
  1301   1018   1017 1
  1302   1018   1009 1
  1303   1018   1019 1
  1304   1021   1023 1
  1305   1021   1024 1
  1306   1021   1009 1
  1307   1021   1022 1
  1308   1025   1004 1
  1309   1025   1026 1
  1310   1025   1059 1
  1311   1025   1024 1
  1312   1028   1032 1
  1313   1028   1029 1
  1314   1028   1031 1
  1315   1030   1049 1
  1316   1030   1033 1
  1317   1030   1068 1
  1318   1030   1029 1
  1319   1034   1055 1
  1320   1034   1033 1
  1321   1034   1074 1
  1322   1034   1035 1
  1323   1036   1038 1
  1324   1036   1035 1
  1325   1036   1027 1
  1326   1036   1037 1
  1327   1039   1041 1
  1328   1039   1042 1
  1329   1039   1027 1
  1330   1039   1040 1
  1331   1043   1058 1
  1332   1043   1044 1
  1333   1043   1077 1
  1334   1043   1042 1
  1335   1046   1050 1
  1336   1046   1047 1
  1337   1046   1049 1
  1338   1048   1373 1
  1339   1048   1047 1
  1340   1048   1051 1
  1341   1048   1392 1
  1342   1052   1379 1
  1343   1052   1053 1
  1344   1052   1051 1
  1345   1052   1398 1
  1346   1054   1056 1
  1347   1054   1053 1
  1348   1054   1045 1
  1349   1054   1055 1
  1350   1057   1059 1
  1351   1057   1060 1
  1352   1057   1045 1
  1353   1057   1058 1
  1354   1061   1382 1
  1355   1061   1060 1
  1356   1061   1062 1
  1357   1061   1401 1
  1358   1064   1068 1
  1359   1064   1065 1
  1360   1064   1067 1
  1361   1066   1391 1
  1362   1066   1065 1
  1363   1066   1069 1
  1364   1066   1086 1
  1365   1070   1397 1
  1366   1070   1071 1
  1367   1070   1069 1
  1368   1070   1092 1
  1369   1072   1074 1
  1370   1072   1071 1
  1371   1072   1063 1
  1372   1072   1073 1
  1373   1075   1077 1
  1374   1075   1078 1
  1375   1075   1063 1
  1376   1075   1076 1
  1377   1079   1400 1
  1378   1079   1078 1
  1379   1079   1080 1
  1380   1079   1095 1
  1381   1082   1083 1
  1382   1082   1085 1
  1383   1082   1086 1
  1384   1084   1122 1
  1385   1084   1087 1
  1386   1084   1083 1
  1387   1084   1427 1
  1388   1088   1128 1
  1389   1088   1087 1
  1390   1088   1089 1
  1391   1088   1433 1
  1392   1090   1089 1
  1393   1090   1091 1
  1394   1090   1081 1
  1395   1090   1092 1
  1396   1093   1096 1
  1397   1093   1094 1
  1398   1093   1095 1
  1399   1093   1081 1
  1400   1097   1131 1
  1401   1097   1098 1
  1402   1097   1096 1
  1403   1097   1436 1
  1404   1100   1101 1
  1405   1100   1104 1
  1406   1100   1103 1
  1407   1102   1121 1
  1408   1102   1140 1
  1409   1102   1105 1
  1410   1102   1101 1
  1411   1106   1127 1
  1412   1106   1146 1
  1413   1106   1105 1
  1414   1106   1107 1
  1415   1108   1107 1
  1416   1108   1110 1
  1417   1108   1099 1
  1418   1108   1109 1
  1419   1111   1114 1
  1420   1111   1113 1
  1421   1111   1112 1
  1422   1111   1099 1
  1423   1115   1130 1
  1424   1115   1149 1
  1425   1115   1116 1
  1426   1115   1114 1
  1427   1118   1119 1
  1428   1118   1121 1
  1429   1118   1122 1
  1430   1120   1119 1
  1431   1120   1464 1
  1432   1120   1445 1
  1433   1120   1123 1
  1434   1124   1125 1
  1435   1124   1470 1
  1436   1124   1451 1
  1437   1124   1123 1
  1438   1126   1125 1
  1439   1126   1117 1
  1440   1126   1127 1
  1441   1126   1128 1
  1442   1129   1132 1
  1443   1129   1130 1
  1444   1129   1131 1
  1445   1129   1117 1
  1446   1133   1132 1
  1447   1133   1473 1
  1448   1133   1454 1
  1449   1133   1134 1
  1450   1136   1137 1
  1451   1136   1139 1
  1452   1136   1140 1
  1453   1138   1137 1
  1454   1138   1518 1
  1455   1138   1463 1
  1456   1138   1141 1
  1457   1142   1143 1
  1458   1142   1524 1
  1459   1142   1469 1
  1460   1142   1141 1
  1461   1144   1143 1
  1462   1144   1145 1
  1463   1144   1135 1
  1464   1144   1146 1
  1465   1147   1150 1
  1466   1147   1148 1
  1467   1147   1149 1
  1468   1147   1135 1
  1469   1151   1150 1
  1470   1151   1527 1
  1471   1151   1472 1
  1472   1151   1152 1
  1473   1154   1158 1
  1474   1154   1155 1
  1475   1154   1157 1
  1476   1156   1139 1
  1477   1156   1159 1
  1478   1156   1194 1
  1479   1156   1155 1
  1480   1160   1145 1
  1481   1160   1159 1
  1482   1160   1200 1
  1483   1160   1161 1
  1484   1162   1164 1
  1485   1162   1161 1
  1486   1162   1153 1
  1487   1162   1163 1
  1488   1165   1167 1
  1489   1165   1168 1
  1490   1165   1153 1
  1491   1165   1166 1
  1492   1169   1148 1
  1493   1169   1170 1
  1494   1169   1203 1
  1495   1169   1168 1
  1496   1172   1176 1
  1497   1172   1173 1
  1498   1172   1175 1
  1499   1174   1193 1
  1500   1174   1177 1
  1501   1174   1212 1
  1502   1174   1173 1
  1503   1178   1199 1
  1504   1178   1177 1
  1505   1178   1218 1
  1506   1178   1179 1
  1507   1180   1182 1
  1508   1180   1179 1
  1509   1180   1171 1
  1510   1180   1181 1
  1511   1183   1185 1
  1512   1183   1186 1
  1513   1183   1171 1
  1514   1183   1184 1
  1515   1187   1202 1
  1516   1187   1188 1
  1517   1187   1221 1
  1518   1187   1186 1
  1519   1190   1194 1
  1520   1190   1191 1
  1521   1190   1193 1
  1522   1192   1517 1
  1523   1192   1191 1
  1524   1192   1195 1
  1525   1192   1536 1
  1526   1196   1523 1
  1527   1196   1197 1
  1528   1196   1195 1
  1529   1196   1542 1
  1530   1198   1200 1
  1531   1198   1197 1
  1532   1198   1189 1
  1533   1198   1199 1
  1534   1201   1203 1
  1535   1201   1204 1
  1536   1201   1189 1
  1537   1201   1202 1
  1538   1205   1526 1
  1539   1205   1204 1
  1540   1205   1206 1
  1541   1205   1545 1
  1542   1208   1211 1
  1543   1208   1212 1
  1544   1208   1209 1
  1545   1210   1535 1
  1546   1210   1590 1
  1547   1210   1209 1
  1548   1210   1213 1
  1549   1214   1541 1
  1550   1214   1596 1
  1551   1214   1215 1
  1552   1214   1213 1
  1553   1216   1217 1
  1554   1216   1218 1
  1555   1216   1215 1
  1556   1216   1207 1
  1557   1219   1220 1
  1558   1219   1221 1
  1559   1219   1222 1
  1560   1219   1207 1
  1561   1223   1544 1
  1562   1223   1599 1
  1563   1223   1222 1
  1564   1223   1224 1
  1565   1226   1229 1
  1566   1226   1227 1
  1567   1226   1230 1
  1568   1228   1266 1
  1569   1228   1231 1
  1570   1228   1211 1
  1571   1228   1227 1
  1572   1232   1272 1
  1573   1232   1231 1
  1574   1232   1217 1
  1575   1232   1233 1
  1576   1234   1235 1
  1577   1234   1233 1
  1578   1234   1225 1
  1579   1234   1236 1
  1580   1237   1238 1
  1581   1237   1240 1
  1582   1237   1225 1
  1583   1237   1239 1
  1584   1241   1275 1
  1585   1241   1242 1
  1586   1241   1220 1
  1587   1241   1240 1
  1588   1244   1247 1
  1589   1244   1245 1
  1590   1244   1248 1
  1591   1246   1284 1
  1592   1246   1249 1
  1593   1246   1265 1
  1594   1246   1245 1
  1595   1250   1290 1
  1596   1250   1249 1
  1597   1250   1271 1
  1598   1250   1251 1
  1599   1252   1253 1
  1600   1252   1251 1
  1601   1252   1243 1
  1602   1252   1254 1
  1603   1255   1256 1
  1604   1255   1258 1
  1605   1255   1243 1
  1606   1255   1257 1
  1607   1259   1293 1
  1608   1259   1260 1
  1609   1259   1274 1
  1610   1259   1258 1
  1611   1262   1265 1
  1612   1262   1263 1
  1613   1262   1266 1
  1614   1264   1608 1
  1615   1264   1263 1
  1616   1264   1267 1
  1617   1264   1589 1
  1618   1268   1614 1
  1619   1268   1269 1
  1620   1268   1267 1
  1621   1268   1595 1
  1622   1270   1271 1
  1623   1270   1269 1
  1624   1270   1261 1
  1625   1270   1272 1
  1626   1273   1274 1
  1627   1273   1276 1
  1628   1273   1261 1
  1629   1273   1275 1
  1630   1277   1617 1
  1631   1277   1276 1
  1632   1277   1278 1
  1633   1277   1598 1
  1634   1280   1283 1
  1635   1280   1281 1
  1636   1280   1284 1
  1637   1282   1662 1
  1638   1282   1281 1
  1639   1282   1285 1
  1640   1282   1607 1
  1641   1286   1668 1
  1642   1286   1287 1
  1643   1286   1285 1
  1644   1286   1613 1
  1645   1288   1289 1
  1646   1288   1287 1
  1647   1288   1279 1
  1648   1288   1290 1
  1649   1291   1292 1
  1650   1291   1294 1
  1651   1291   1279 1
  1652   1291   1293 1
  1653   1295   1671 1
  1654   1295   1294 1
  1655   1295   1296 1
  1656   1295   1616 1
  1657   1298   1301 1
  1658   1298   1299 1
  1659   1298   1302 1
  1660   1300   1338 1
  1661   1300   1303 1
  1662   1300   1283 1
  1663   1300   1299 1
  1664   1304   1344 1
  1665   1304   1303 1
  1666   1304   1289 1
  1667   1304   1305 1
  1668   1306   1307 1
  1669   1306   1305 1
  1670   1306   1297 1
  1671   1306   1308 1
  1672   1309   1310 1
  1673   1309   1312 1
  1674   1309   1297 1
  1675   1309   1311 1
  1676   1313   1347 1
  1677   1313   1314 1
  1678   1313   1292 1
  1679   1313   1312 1
  1680   1316   1319 1
  1681   1316   1317 1
  1682   1316   1320 1
  1683   1318   1356 1
  1684   1318   1321 1
  1685   1318   1337 1
  1686   1318   1317 1
  1687   1322   1362 1
  1688   1322   1321 1
  1689   1322   1343 1
  1690   1322   1323 1
  1691   1324   1325 1
  1692   1324   1323 1
  1693   1324   1315 1
  1694   1324   1326 1
  1695   1327   1328 1
  1696   1327   1330 1
  1697   1327   1315 1
  1698   1327   1329 1
  1699   1331   1365 1
  1700   1331   1332 1
  1701   1331   1346 1
  1702   1331   1330 1
  1703   1334   1337 1
  1704   1334   1335 1
  1705   1334   1338 1
  1706   1336   1680 1
  1707   1336   1335 1
  1708   1336   1339 1
  1709   1336   1661 1
  1710   1340   1686 1
  1711   1340   1341 1
  1712   1340   1339 1
  1713   1340   1667 1
  1714   1342   1343 1
  1715   1342   1341 1
  1716   1342   1333 1
  1717   1342   1344 1
  1718   1345   1346 1
  1719   1345   1348 1
  1720   1345   1333 1
  1721   1345   1347 1
  1722   1349   1689 1
  1723   1349   1348 1
  1724   1349   1350 1
  1725   1349   1670 1
  1726   1352   1356 1
  1727   1352   1353 1
  1728   1352   1355 1
  1729   1354   1679 1
  1730   1354   1353 1
  1731   1354   1357 1
  1732   1354   1734 1
  1733   1358   1685 1
  1734   1358   1359 1
  1735   1358   1357 1
  1736   1358   1740 1
  1737   1360   1362 1
  1738   1360   1359 1
  1739   1360   1351 1
  1740   1360   1361 1
  1741   1363   1365 1
  1742   1363   1366 1
  1743   1363   1351 1
  1744   1363   1364 1
  1745   1367   1688 1
  1746   1367   1366 1
  1747   1367   1368 1
  1748   1367   1743 1
  1749   1370   1374 1
  1750   1370   1371 1
  1751   1370   1373 1
  1752   1372   1355 1
  1753   1372   1375 1
  1754   1372   1410 1
  1755   1372   1371 1
  1756   1376   1361 1
  1757   1376   1375 1
  1758   1376   1416 1
  1759   1376   1377 1
  1760   1378   1380 1
  1761   1378   1377 1
  1762   1378   1369 1
  1763   1378   1379 1
  1764   1381   1383 1
  1765   1381   1384 1
  1766   1381   1369 1
  1767   1381   1382 1
  1768   1385   1364 1
  1769   1385   1386 1
  1770   1385   1419 1
  1771   1385   1384 1
  1772   1388   1392 1
  1773   1388   1389 1
  1774   1388   1391 1
  1775   1390   1409 1
  1776   1390   1393 1
  1777   1390   1428 1
  1778   1390   1389 1
  1779   1394   1415 1
  1780   1394   1393 1
  1781   1394   1434 1
  1782   1394   1395 1
  1783   1396   1398 1
  1784   1396   1395 1
  1785   1396   1387 1
  1786   1396   1397 1
  1787   1399   1401 1
  1788   1399   1402 1
  1789   1399   1387 1
  1790   1399   1400 1
  1791   1403   1418 1
  1792   1403   1404 1
  1793   1403   1437 1
  1794   1403   1402 1
  1795   1406   1410 1
  1796   1406   1407 1
  1797   1406   1409 1
  1798   1408   1733 1
  1799   1408   1407 1
  1800   1408   1411 1
  1801   1408   1752 1
  1802   1412   1739 1
  1803   1412   1413 1
  1804   1412   1411 1
  1805   1412   1758 1
  1806   1414   1416 1
  1807   1414   1413 1
  1808   1414   1405 1
  1809   1414   1415 1
  1810   1417   1419 1
  1811   1417   1420 1
  1812   1417   1405 1
  1813   1417   1418 1
  1814   1421   1742 1
  1815   1421   1420 1
  1816   1421   1422 1
  1817   1421   1761 1
  1818   1424   1428 1
  1819   1424   1425 1
  1820   1424   1427 1
  1821   1426   1751 1
  1822   1426   1425 1
  1823   1426   1429 1
  1824   1426   1446 1
  1825   1430   1757 1
  1826   1430   1431 1
  1827   1430   1429 1
  1828   1430   1452 1
  1829   1432   1434 1
  1830   1432   1431 1
  1831   1432   1423 1
  1832   1432   1433 1
  1833   1435   1437 1
  1834   1435   1438 1
  1835   1435   1423 1
  1836   1435   1436 1
  1837   1439   1760 1
  1838   1439   1438 1
  1839   1439   1440 1
  1840   1439   1455 1
  1841   1442   1445 1
  1842   1442   1446 1
  1843   1442   1443 1
  1844   1444   1443 1
  1845   1444   1482 1
  1846   1444   1447 1
  1847   1444   1787 1
  1848   1448   1449 1
  1849   1448   1488 1
  1850   1448   1447 1
  1851   1448   1793 1
  1852   1450   1451 1
  1853   1450   1441 1
  1854   1450   1452 1
  1855   1450   1449 1
  1856   1453   1454 1
  1857   1453   1455 1
  1858   1453   1441 1
  1859   1453   1456 1
  1860   1457   1456 1
  1861   1457   1491 1
  1862   1457   1458 1
  1863   1457   1796 1
  1864   1460   1464 1
  1865   1460   1463 1
  1866   1460   1461 1
  1867   1462   1461 1
  1868   1462   1481 1
  1869   1462   1500 1
  1870   1462   1465 1
  1871   1466   1467 1
  1872   1466   1487 1
  1873   1466   1506 1
  1874   1466   1465 1
  1875   1468   1470 1
  1876   1468   1459 1
  1877   1468   1469 1
  1878   1468   1467 1
  1879   1471   1473 1
  1880   1471   1472 1
  1881   1471   1459 1
  1882   1471   1474 1
  1883   1475   1474 1
  1884   1475   1490 1
  1885   1475   1509 1
  1886   1475   1476 1
  1887   1478   1479 1
  1888   1478   1481 1
  1889   1478   1482 1
  1890   1480   1479 1
  1891   1480   1483 1
  1892   1480     24 1
  1893   1480      5 1
  1894   1484   1485 1
  1895   1484   1483 1
  1896   1484     30 1
  1897   1484     11 1
  1898   1486   1485 1
  1899   1486   1477 1
  1900   1486   1487 1
  1901   1486   1488 1
  1902   1489   1492 1
  1903   1489   1490 1
  1904   1489   1491 1
  1905   1489   1477 1
  1906   1493   1492 1
  1907   1493   1494 1
  1908   1493     33 1
  1909   1493     14 1
  1910   1496   1497 1
  1911   1496   1499 1
  1912   1496   1500 1
  1913   1498   1497 1
  1914   1498   1501 1
  1915   1498     78 1
  1916   1498     23 1
  1917   1502   1503 1
  1918   1502   1501 1
  1919   1502     84 1
  1920   1502     29 1
  1921   1504   1503 1
  1922   1504   1505 1
  1923   1504   1495 1
  1924   1504   1506 1
  1925   1507   1510 1
  1926   1507   1508 1
  1927   1507   1509 1
  1928   1507   1495 1
  1929   1511   1510 1
  1930   1511   1512 1
  1931   1511     87 1
  1932   1511     32 1
  1933   1514   1518 1
  1934   1514   1517 1
  1935   1514   1515 1
  1936   1516   1499 1
  1937   1516   1515 1
  1938   1516   1519 1
  1939   1516   1554 1
  1940   1520   1505 1
  1941   1520   1521 1
  1942   1520   1519 1
  1943   1520   1560 1
  1944   1522   1524 1
  1945   1522   1513 1
  1946   1522   1523 1
  1947   1522   1521 1
  1948   1525   1527 1
  1949   1525   1513 1
  1950   1525   1526 1
  1951   1525   1528 1
  1952   1529   1508 1
  1953   1529   1528 1
  1954   1529   1530 1
  1955   1529   1563 1
  1956   1532   1536 1
  1957   1532   1535 1
  1958   1532   1533 1
  1959   1534   1553 1
  1960   1534   1533 1
  1961   1534   1537 1
  1962   1534   1572 1
  1963   1538   1559 1
  1964   1538   1539 1
  1965   1538   1537 1
  1966   1538   1578 1
  1967   1540   1542 1
  1968   1540   1531 1
  1969   1540   1541 1
  1970   1540   1539 1
  1971   1543   1545 1
  1972   1543   1531 1
  1973   1543   1544 1
  1974   1543   1546 1
  1975   1547   1562 1
  1976   1547   1546 1
  1977   1547   1548 1
  1978   1547   1581 1
  1979   1550   1554 1
  1980   1550   1551 1
  1981   1550   1553 1
  1982   1552   1551 1
  1983   1552   1555 1
  1984   1552     77 1
  1985   1552     96 1
  1986   1556   1557 1
  1987   1556   1555 1
  1988   1556     83 1
  1989   1556    102 1
  1990   1558   1560 1
  1991   1558   1557 1
  1992   1558   1549 1
  1993   1558   1559 1
  1994   1561   1563 1
  1995   1561   1564 1
  1996   1561   1549 1
  1997   1561   1562 1
  1998   1565   1564 1
  1999   1565   1566 1
  2000   1565     86 1
  2001   1565    105 1
  2002   1568   1571 1
  2003   1568   1572 1
  2004   1568   1569 1
  2005   1570   1569 1
  2006   1570   1573 1
  2007   1570     95 1
  2008   1570    150 1
  2009   1574   1575 1
  2010   1574   1573 1
  2011   1574    101 1
  2012   1574    156 1
  2013   1576   1577 1
  2014   1576   1578 1
  2015   1576   1575 1
  2016   1576   1567 1
  2017   1579   1580 1
  2018   1579   1581 1
  2019   1579   1582 1
  2020   1579   1567 1
  2021   1583   1582 1
  2022   1583   1584 1
  2023   1583    104 1
  2024   1583    159 1
  2025   1586   1589 1
  2026   1586   1590 1
  2027   1586   1587 1
  2028   1588   1626 1
  2029   1588   1587 1
  2030   1588   1591 1
  2031   1588   1571 1
  2032   1592   1632 1
  2033   1592   1593 1
  2034   1592   1591 1
  2035   1592   1577 1
  2036   1594   1595 1
  2037   1594   1585 1
  2038   1594   1596 1
  2039   1594   1593 1
  2040   1597   1598 1
  2041   1597   1585 1
  2042   1597   1599 1
  2043   1597   1600 1
  2044   1601   1635 1
  2045   1601   1600 1
  2046   1601   1602 1
  2047   1601   1580 1
  2048   1604   1607 1
  2049   1604   1608 1
  2050   1604   1605 1
  2051   1606   1644 1
  2052   1606   1605 1
  2053   1606   1609 1
  2054   1606   1625 1
  2055   1610   1650 1
  2056   1610   1611 1
  2057   1610   1609 1
  2058   1610   1631 1
  2059   1612   1613 1
  2060   1612   1603 1
  2061   1612   1614 1
  2062   1612   1611 1
  2063   1615   1616 1
  2064   1615   1603 1
  2065   1615   1617 1
  2066   1615   1618 1
  2067   1619   1653 1
  2068   1619   1618 1
  2069   1619   1620 1
  2070   1619   1634 1
  2071   1622   1625 1
  2072   1622   1623 1
  2073   1622   1626 1
  2074   1624   1623 1
  2075   1624   1627 1
  2076   1624    168 1
  2077   1624    149 1
  2078   1628   1629 1
  2079   1628   1627 1
  2080   1628    174 1
  2081   1628    155 1
  2082   1630   1631 1
  2083   1630   1629 1
  2084   1630   1621 1
  2085   1630   1632 1
  2086   1633   1634 1
  2087   1633   1636 1
  2088   1633   1621 1
  2089   1633   1635 1
  2090   1637   1636 1
  2091   1637   1638 1
  2092   1637    177 1
  2093   1637    158 1
  2094   1640   1643 1
  2095   1640   1641 1
  2096   1640   1644 1
  2097   1642   1641 1
  2098   1642   1645 1
  2099   1642    222 1
  2100   1642    167 1
  2101   1646   1647 1
  2102   1646   1645 1
  2103   1646    228 1
  2104   1646    173 1
  2105   1648   1649 1
  2106   1648   1647 1
  2107   1648   1639 1
  2108   1648   1650 1
  2109   1651   1652 1
  2110   1651   1654 1
  2111   1651   1639 1
  2112   1651   1653 1
  2113   1655   1654 1
  2114   1655   1656 1
  2115   1655    231 1
  2116   1655    176 1
  2117   1658   1661 1
  2118   1658   1662 1
  2119   1658   1659 1
  2120   1660   1698 1
  2121   1660   1659 1
  2122   1660   1663 1
  2123   1660   1643 1
  2124   1664   1704 1
  2125   1664   1665 1
  2126   1664   1663 1
  2127   1664   1649 1
  2128   1666   1667 1
  2129   1666   1657 1
  2130   1666   1668 1
  2131   1666   1665 1
  2132   1669   1670 1
  2133   1669   1657 1
  2134   1669   1671 1
  2135   1669   1672 1
  2136   1673   1707 1
  2137   1673   1672 1
  2138   1673   1674 1
  2139   1673   1652 1
  2140   1676   1679 1
  2141   1676   1680 1
  2142   1676   1677 1
  2143   1678   1716 1
  2144   1678   1677 1
  2145   1678   1681 1
  2146   1678   1697 1
  2147   1682   1722 1
  2148   1682   1683 1
  2149   1682   1681 1
  2150   1682   1703 1
  2151   1684   1685 1
  2152   1684   1675 1
  2153   1684   1686 1
  2154   1684   1683 1
  2155   1687   1688 1
  2156   1687   1675 1
  2157   1687   1689 1
  2158   1687   1690 1
  2159   1691   1725 1
  2160   1691   1690 1
  2161   1691   1692 1
  2162   1691   1706 1
  2163   1694   1697 1
  2164   1694   1695 1
  2165   1694   1698 1
  2166   1696   1695 1
  2167   1696   1699 1
  2168   1696    240 1
  2169   1696    221 1
  2170   1700   1701 1
  2171   1700   1699 1
  2172   1700    246 1
  2173   1700    227 1
  2174   1702   1703 1
  2175   1702   1701 1
  2176   1702   1693 1
  2177   1702   1704 1
  2178   1705   1706 1
  2179   1705   1708 1
  2180   1705   1693 1
  2181   1705   1707 1
  2182   1709   1708 1
  2183   1709   1710 1
  2184   1709    249 1
  2185   1709    230 1
  2186   1712   1716 1
  2187   1712   1713 1
  2188   1712   1715 1
  2189   1714   1713 1
  2190   1714   1717 1
  2191   1714    239 1
  2192   1714    294 1
  2193   1718   1719 1
  2194   1718   1717 1
  2195   1718    245 1
  2196   1718    300 1
  2197   1720   1722 1
  2198   1720   1719 1
  2199   1720   1711 1
  2200   1720   1721 1
  2201   1723   1725 1
  2202   1723   1726 1
  2203   1723   1711 1
  2204   1723   1724 1
  2205   1727   1726 1
  2206   1727   1728 1
  2207   1727    248 1
  2208   1727    303 1
  2209   1730   1734 1
  2210   1730   1733 1
  2211   1730   1731 1
  2212   1732   1715 1
  2213   1732   1731 1
  2214   1732   1735 1
  2215   1732   1770 1
  2216   1736   1721 1
  2217   1736   1737 1
  2218   1736   1735 1
  2219   1736   1776 1
  2220   1738   1740 1
  2221   1738   1729 1
  2222   1738   1739 1
  2223   1738   1737 1
  2224   1741   1743 1
  2225   1741   1729 1
  2226   1741   1742 1
  2227   1741   1744 1
  2228   1745   1724 1
  2229   1745   1744 1
  2230   1745   1746 1
  2231   1745   1779 1
  2232   1748   1752 1
  2233   1748   1751 1
  2234   1748   1749 1
  2235   1750   1769 1
  2236   1750   1749 1
  2237   1750   1753 1
  2238   1750   1788 1
  2239   1754   1775 1
  2240   1754   1755 1
  2241   1754   1753 1
  2242   1754   1794 1
  2243   1756   1758 1
  2244   1756   1747 1
  2245   1756   1757 1
  2246   1756   1755 1
  2247   1759   1761 1
  2248   1759   1747 1
  2249   1759   1760 1
  2250   1759   1762 1
  2251   1763   1778 1
  2252   1763   1762 1
  2253   1763   1764 1
  2254   1763   1797 1
  2255   1766   1770 1
  2256   1766   1767 1
  2257   1766   1769 1
  2258   1768   1767 1
  2259   1768   1771 1
  2260   1768    293 1
  2261   1768    312 1
  2262   1772   1773 1
  2263   1772   1771 1
  2264   1772    299 1
  2265   1772    318 1
  2266   1774   1776 1
  2267   1774   1773 1
  2268   1774   1765 1
  2269   1774   1775 1
  2270   1777   1779 1
  2271   1777   1780 1
  2272   1777   1765 1
  2273   1777   1778 1
  2274   1781   1780 1
  2275   1781   1782 1
  2276   1781    302 1
  2277   1781    321 1
  2278   1784   1788 1
  2279   1784   1785 1
  2280   1784   1787 1
  2281   1786   1785 1
  2282   1786   1789 1
  2283   1786    311 1
  2284   1786      6 1
  2285   1790   1791 1
  2286   1790   1789 1
  2287   1790    317 1
  2288   1790     12 1
  2289   1792   1794 1
  2290   1792   1791 1
  2291   1792   1783 1
  2292   1792   1793 1
  2293   1795   1797 1
  2294   1795   1798 1
  2295   1795   1783 1
  2296   1795   1796 1
  2297   1799   1798 1
  2298   1799   1800 1
  2299   1799    320 1
  2300   1799     15 1
