@<TRIPOS>MOLECULE
*****
 3 2 0 0 0
SMALL
GASTEIGER

@<TRIPOS>ATOM
      1 C           0.0000    0.0000    0.0000 C.3     1  LIG1       -0.0531
      2 H          -1.1000    0.0000    0.0000 H       1  LIG1        0.0265
      3 H           1.1000    0.0000    0.0000 H       1  LIG1        0.0265
@<TRIPOS>BOND
     1     1     2    1
     2     1     3    1
