@<TRIPOS>MOLECULE
DPPC
4 3 1 0 1
SMALL
USER_CHARGES
@<TRIPOS>CRYSIN
   13.9528    17.1622    31.1323    90.0000    90.0000    90.0000  1  1
@<TRIPOS>ATOM
      1 CTL1          -0.1558     6.4170     4.4541 CTL1            1 DPPC       1.500000
      2 OSL         -0.7278     7.6038     3.8783 OSL           1 DPPC      -0.780000
      3 PL         -0.5108     6.0856     5.8561 PL           1 DPPC      -0.780000
      4 OSLP        -0.2550     5.1063     3.5611 OSLP          1 DPPC      -0.570000

@<TRIPOS>BOND
        1 1 2 1
        2 2 3 1
        3 1 4 1
