@<TRIPOS>MOLECULE
*****
 5 4 0 0 0
SMALL
GASTEIGER

@<TRIPOS>ATOM
      1 Si          1.3786    0.5067    0.0000 Si      1  LIG1        0.0000
      2 O           0.0793    0.6448    0.0000 O.3     1  LIG1        0.0000
      3 H          -0.2432    0.7113    0.6707 H       1  LIG1        0.0000
      4 O           2.8373    0.5041   -0.0000 O.3     1  LIG1        0.0000
      5 H           3.1944    0.3825   -0.8021 H       1  LIG1        0.0000
@<TRIPOS>BOND
     1     1     2    1
     2     2     3    1
     3     1     4    1
     4     4     5    1
