@<TRIPOS>MOLECULE
*****
 16 16 0 0 0
SMALL
GASTEIGER
Energy = 0

@<TRIPOS>ATOM
      1 C           0.9779   -0.1035    0.1521 C.2     1  LIG1       -0.0981
      2 C           2.2964   -0.0143   -0.0100 C.2     1  LIG1       -0.0617
      3 C           3.0006    1.2797   -0.0423 C.ar    1  LIG1       -0.0256
      4 C           2.3148    2.4926    0.1316 C.ar    1  LIG1       -0.0546
      5 C           3.0090    3.7071    0.0829 C.ar    1  LIG1       -0.0612
      6 C           4.3871    3.7129   -0.1420 C.ar    1  LIG1       -0.0617
      7 C           5.0746    2.5092   -0.3140 C.ar    1  LIG1       -0.0612
      8 C           4.3825    1.2949   -0.2632 C.ar    1  LIG1       -0.0546
      9 H           0.5216   -1.0290    0.1692 H       1  LIG1        0.0535
     10 H           0.4122    0.7528    0.2607 H       1  LIG1        0.0535
     11 H           2.8445   -0.8821   -0.1169 H       1  LIG1        0.0618
     12 H           1.2959    2.4887    0.2957 H       1  LIG1        0.0623
     13 H           2.5030    4.5971    0.2131 H       1  LIG1        0.0618
     14 H           4.8987    4.6083   -0.1812 H       1  LIG1        0.0618
     15 H           6.0934    2.5159   -0.4785 H       1  LIG1        0.0618
     16 H           4.8928    0.4067   -0.3892 H       1  LIG1        0.0623
@<TRIPOS>BOND
     1     3     4   ar
     2     4     5   ar
     3     3     8   ar
     4     7     8   ar
     5     6     7   ar
     6     5     6   ar
     7     1     2    2
     8     2     3    1
     9     1     9    1
    10     1    10    1
    11     2    11    1
    12     4    12    1
    13     5    13    1
    14     6    14    1
    15     7    15    1
    16     8    16    1
