@<TRIPOS>MOLECULE
*****
 648 432 0 0 0
SMALL
GASTEIGER

@<TRIPOS>ATOM
      1 O           2.3000    6.2800    1.1300 O.3     1  HOH1       -0.4105
      2 H           1.3700    6.2600    1.5000 H       0  HOH0        0.2052
      3 H           2.3100    5.8900    0.2100 H       0  HOH0        0.2052
      4 O           2.2500    2.7500   -8.6600 O.3     2  HOH2       -0.4105
      5 H           2.6000    2.5800   -7.7400 H       0  HOH0        0.2052
      6 H           1.3700    2.3000   -8.7800 H       0  HOH0        0.2052
      7 O           0.1900    3.6800    6.4700 O.3     3  HOH3       -0.4105
      8 H          -0.6300    4.1100    6.8600 H       0  HOH0        0.2052
      9 H          -0.0900    2.9500    5.8400 H       0  HOH0        0.2052
     10 O           5.6900   -5.8700   -6.9700 O.3     4  HOH4       -0.4105
     11 H           4.7600   -5.9400   -7.3400 H       0  HOH0        0.2052
     12 H           5.8000   -4.9800   -6.5300 H       0  HOH0        0.2052
     13 O          -3.0700   -3.5100    7.0300 O.3     5  HOH5       -0.4105
     14 H          -3.6400   -3.6700    7.8400 H       0  HOH0        0.2052
     15 H          -3.6600   -3.4100    6.2300 H       0  HOH0        0.2052
     16 O          -1.1900    6.1800    8.5600 O.3     6  HOH6       -0.4105
     17 H          -0.8600    7.1200    8.5600 H       0  HOH0        0.2052
     18 H          -0.6800    5.6400    9.2200 H       0  HOH0        0.2052
     19 O          -7.2700    7.0300    7.1700 O.3     7  HOH7       -0.4105
     20 H          -6.7000    7.8100    6.9200 H       0  HOH0        0.2052
     21 H          -7.8700    7.2900    7.9300 H       0  HOH0        0.2052
     22 O          -1.0700    6.0700    2.3100 O.3     8  HOH8       -0.4105
     23 H          -1.1900    5.9400    1.3200 H       0  HOH0        0.2052
     24 H          -1.3700    5.2600    2.8000 H       0  HOH0        0.2052
     25 O           7.6800   -7.1800   -8.3900 O.3     9  HOH9       -0.4105
     26 H           6.9000   -7.0100   -7.7900 H       0  HOH0        0.2052
     27 H           8.0200   -6.3100   -8.7500 H       0  HOH0        0.2052
     28 O           8.5000    7.9800   -0.3900 O.3    10  HOH10      -0.4105
     29 H           8.4600    8.7400    0.2600 H       0  HOH0        0.2052
     30 H           8.7200    8.3400   -1.3000 H       0  HOH0        0.2052
     31 O           6.8500   -8.5000    6.6500 O.3    11  HOH11      -0.4105
     32 H           7.5400   -8.6600    7.3500 H       0  HOH0        0.2052
     33 H           6.1200   -7.9300    7.0300 H       0  HOH0        0.2052
     34 O           6.8600   -7.0100   -0.5900 O.3    12  HOH12      -0.4105
     35 H           7.4600   -6.2200   -0.4500 H       0  HOH0        0.2052
     36 H           6.0000   -6.7000   -1.0000 H       0  HOH0        0.2052
     37 O           3.3500   -4.2700   -8.0100 O.3    13  HOH13      -0.4105
     38 H           2.5700   -4.5800   -8.5400 H       0  HOH0        0.2052
     39 H           3.9300   -3.6900   -8.5800 H       0  HOH0        0.2052
     40 O          -4.0200   -3.5700   -5.2300 O.3    14  HOH14      -0.4105
     41 H          -3.7800   -2.6300   -4.9700 H       0  HOH0        0.2052
     42 H          -4.1800   -4.1100   -4.4100 H       0  HOH0        0.2052
     43 O           4.3800    3.9200   -3.6300 O.3    15  HOH15      -0.4105
     44 H           5.2000    3.3600   -3.5400 H       0  HOH0        0.2052
     45 H           3.5700    3.3400   -3.5900 H       0  HOH0        0.2052
     46 O          -2.5900    4.4700    7.3700 O.3    16  HOH16      -0.4105
     47 H          -3.3300    4.9300    6.8700 H       0  HOH0        0.2052
     48 H          -2.0800    5.1500    7.9000 H       0  HOH0        0.2052
     49 O           2.3100   -1.4900    4.8300 O.3    17  HOH17      -0.4105
     50 H           2.6500   -0.7200    5.3700 H       0  HOH0        0.2052
     51 H           2.7500   -1.4900    3.9300 H       0  HOH0        0.2052
     52 O          -7.3500   -5.2100   -1.7200 O.3    18  HOH18      -0.4105
     53 H          -6.8800   -5.2100   -0.8400 H       0  HOH0        0.2052
     54 H          -7.8300   -6.0800   -1.8300 H       0  HOH0        0.2052
     55 O           2.3000   -4.2800    5.3800 O.3    19  HOH19      -0.4105
     56 H           2.0400   -3.3200    5.3800 H       0  HOH0        0.2052
     57 H           1.5900   -4.8200    5.8300 H       0  HOH0        0.2052
     58 O           2.4000   -7.7100    8.8600 O.3    20  HOH20      -0.4105
     59 H           2.5400   -8.5500    9.3800 H       0  HOH0        0.2052
     60 H           1.8500   -7.0700    9.4100 H       0  HOH0        0.2052
     61 O           6.2000   -0.7600   -4.2300 O.3    21  HOH21      -0.4105
     62 H           5.2800   -0.9300   -3.8800 H       0  HOH0        0.2052
     63 H           6.4800    0.1600   -3.9700 H       0  HOH0        0.2052
     64 O           6.0600   -8.9800    1.2300 O.3    22  HOH22      -0.4105
     65 H           6.1300   -8.1400    0.6900 H       0  HOH0        0.2052
     66 H           6.5200   -8.8500    2.1100 H       0  HOH0        0.2052
     67 O          -2.6800    1.1400   -3.8200 O.3    23  HOH23      -0.4105
     68 H          -2.8600    1.8100   -4.5400 H       0  HOH0        0.2052
     69 H          -2.7100    1.6000   -2.9300 H       0  HOH0        0.2052
     70 O           1.2200    6.4300    5.6300 O.3    24  HOH24      -0.4105
     71 H           0.7700    5.5500    5.8000 H       0  HOH0        0.2052
     72 H           1.2100    6.9700    6.4700 H       0  HOH0        0.2052
     73 O          -0.2000   -0.9500    3.5900 O.3    25  HOH25      -0.4105
     74 H           0.3400   -1.2400    4.3900 H       0  HOH0        0.2052
     75 H           0.1000   -0.0500    3.3000 H       0  HOH0        0.2052
     76 O           0.2700   -2.6600    1.1700 O.3    26  HOH26      -0.4105
     77 H           0.0800   -3.6200    1.3800 H       0  HOH0        0.2052
     78 H          -0.0600   -2.0800    1.9200 H       0  HOH0        0.2052
     79 O          -1.7300    9.2200    6.1200 O.3    27  HOH27      -0.4105
     80 H          -0.7800    8.9300    6.2000 H       0  HOH0        0.2052
     81 H          -1.8100    9.8700    5.3700 H       0  HOH0        0.2052
     82 O          -2.2100   -7.5400    4.3200 O.3    28  HOH28      -0.4105
     83 H          -1.3500   -7.5200    3.8000 H       0  HOH0        0.2052
     84 H          -2.0700   -7.0700    5.2000 H       0  HOH0        0.2052
     85 O           1.1300    7.3700   -2.6500 O.3    29  HOH29      -0.4105
     86 H           2.0100    7.2400   -2.2000 H       0  HOH0        0.2052
     87 H           1.0000    8.3400   -2.8700 H       0  HOH0        0.2052
     88 O           6.1300   -4.9700    7.2600 O.3    30  HOH30      -0.4105
     89 H           5.6400   -5.8400    7.3500 H       0  HOH0        0.2052
     90 H           5.9000   -4.5400    6.3900 H       0  HOH0        0.2052
     91 O          -5.6900   -6.3400   -4.3900 O.3    31  HOH31      -0.4105
     92 H          -5.3200   -7.0700   -4.9700 H       0  HOH0        0.2052
     93 H          -5.1700   -6.2900   -3.5400 H       0  HOH0        0.2052
     94 O           8.0900    0.0400    5.0200 O.3    32  HOH32      -0.4105
     95 H           8.4900    0.9500    4.9300 H       0  HOH0        0.2052
     96 H           7.0900    0.1200    5.0800 H       0  HOH0        0.2052
     97 O           1.9700   -8.8600   -5.9800 O.3    33  HOH33      -0.4105
     98 H           2.8600   -9.3100   -6.1200 H       0  HOH0        0.2052
     99 H           1.2400   -9.5100   -6.1700 H       0  HOH0        0.2052
    100 O          -3.3700   -8.6300    1.9000 O.3    34  HOH34      -0.4105
    101 H          -4.0000   -9.3900    2.0300 H       0  HOH0        0.2052
    102 H          -2.8900   -8.4500    2.7600 H       0  HOH0        0.2052
    103 O          -6.7500   -0.7000   -2.4600 O.3    35  HOH35      -0.4105
    104 H          -6.5100   -0.1000   -3.2200 H       0  HOH0        0.2052
    105 H          -6.6800   -1.6500   -2.7600 H       0  HOH0        0.2052
    106 O           3.1700    2.5100   -0.6100 O.3    36  HOH36      -0.4105
    107 H           3.8800    3.2200   -0.5500 H       0  HOH0        0.2052
    108 H           2.2900    2.9000   -0.3300 H       0  HOH0        0.2052
    109 O          -3.9600   -4.4500   -9.0900 O.3    37  HOH37      -0.4105
    110 H          -4.5500   -4.3900   -8.2900 H       0  HOH0        0.2052
    111 H          -4.1100   -5.3300   -9.5500 H       0  HOH0        0.2052
    112 O          -1.9500   -1.4800    5.7200 O.3    38  HOH38      -0.4105
    113 H          -2.3600   -1.7100    4.8400 H       0  HOH0        0.2052
    114 H          -2.1300   -2.2200    6.3700 H       0  HOH0        0.2052
    115 O           5.9800    7.2900    2.7000 O.3    39  HOH39      -0.4105
    116 H           6.2200    7.9800    2.0200 H       0  HOH0        0.2052
    117 H           5.2000    7.6200    3.2400 H       0  HOH0        0.2052
    118 O          -5.8100    3.4500   -9.1800 O.3    40  HOH40      -0.4105
    119 H          -6.6700    2.9500   -9.3100 H       0  HOH0        0.2052
    120 H          -5.1900    2.9100   -8.6200 H       0  HOH0        0.2052
    121 O          -2.8600   -2.0000    3.0700 O.3    41  HOH41      -0.4105
    122 H          -1.9700   -1.5400    3.1000 H       0  HOH0        0.2052
    123 H          -3.0700   -2.2400    2.1200 H       0  HOH0        0.2052
    124 O           8.0700    6.0500   -3.9700 O.3    42  HOH42      -0.4105
    125 H           7.6000    6.0200   -3.0800 H       0  HOH0        0.2052
    126 H           7.5600    5.5000   -4.6300 H       0  HOH0        0.2052
    127 O          -4.6800    4.6900   -1.8800 O.3    43  HOH43      -0.4105
    128 H          -4.8800    5.1200   -1.0000 H       0  HOH0        0.2052
    129 H          -3.9000    4.0700   -1.7900 H       0  HOH0        0.2052
    130 O          -8.8900    8.9000   -2.9000 O.3    44  HOH44      -0.4105
    131 H          -8.4300    8.0600   -3.1900 H       0  HOH0        0.2052
    132 H          -9.4500    9.2400   -3.6500 H       0  HOH0        0.2052
    133 O          -8.7100    4.1000   -6.2000 O.3    45  HOH45      -0.4105
    134 H          -9.4800    4.4400   -5.6600 H       0  HOH0        0.2052
    135 H          -9.0500    3.5900   -6.9900 H       0  HOH0        0.2052
    136 O          -8.2100    7.0100    4.2900 O.3    46  HOH46      -0.4105
    137 H          -7.9500    6.9700    5.2500 H       0  HOH0        0.2052
    138 H          -9.0600    6.5000    4.1500 H       0  HOH0        0.2052
    139 O           0.7600    8.1100    7.8900 O.3    47  HOH47      -0.4105
    140 H           1.7500    7.9900    7.9800 H       0  HOH0        0.2052
    141 H           0.5200    9.0600    8.1000 H       0  HOH0        0.2052
    142 O           1.3000   -0.4100   -2.9100 O.3    48  HOH48      -0.4105
    143 H           1.2000   -0.5600   -1.9200 H       0  HOH0        0.2052
    144 H           0.4400   -0.0500   -3.2700 H       0  HOH0        0.2052
    145 O           8.6500    3.4800    1.9500 O.3    49  HOH49      -0.4105
    146 H           9.2400    4.1100    1.4600 H       0  HOH0        0.2052
    147 H           8.8400    2.5400    1.6600 H       0  HOH0        0.2052
    148 O          -1.4300    5.8500   -0.3100 O.3    50  HOH50      -0.4105
    149 H          -1.6900    6.7400   -0.6700 H       0  HOH0        0.2052
    150 H          -1.4500    5.1700   -1.0400 H       0  HOH0        0.2052
    151 O          -5.0000   -7.1800    5.4500 O.3    51  HOH51      -0.4105
    152 H          -4.1700   -7.4700    4.9700 H       0  HOH0        0.2052
    153 H          -5.4900   -6.5100    4.8900 H       0  HOH0        0.2052
    154 O           5.5000    1.9600    8.8500 O.3    52  HOH52      -0.4105
    155 H           5.4500    1.9100    9.8500 H       0  HOH0        0.2052
    156 H           5.5200    2.9200    8.5600 H       0  HOH0        0.2052
    157 O          -8.5400   -4.0600    4.7700 O.3    53  HOH53      -0.4105
    158 H          -9.0000   -3.3400    4.2500 H       0  HOH0        0.2052
    159 H          -8.5800   -3.8600    5.7500 H       0  HOH0        0.2052
    160 O           3.5100   -0.6100    8.5300 O.3    54  HOH54      -0.4105
    161 H           4.0100   -1.4700    8.5900 H       0  HOH0        0.2052
    162 H           4.1600    0.1600    8.5000 H       0  HOH0        0.2052
    163 O          -0.6700   -7.9600    8.7300 O.3    55  HOH55      -0.4105
    164 H          -1.2900   -8.1100    7.9700 H       0  HOH0        0.2052
    165 H          -1.1900   -7.8500    9.5800 H       0  HOH0        0.2052
    166 O          -6.3500   -3.1200   -3.5600 O.3    56  HOH56      -0.4105
    167 H          -6.2900   -3.8900   -2.9200 H       0  HOH0        0.2052
    168 H          -6.8700   -3.3800   -4.3600 H       0  HOH0        0.2052
    169 O           3.2100   -9.1900    2.4200 O.3    57  HOH57      -0.4105
    170 H           4.0300   -8.8000    2.0000 H       0  HOH0        0.2052
    171 H           2.9400  -10.0100    1.9300 H       0  HOH0        0.2052
    172 O          -4.0400    7.3500    7.2800 O.3    58  HOH58      -0.4105
    173 H          -4.0900    6.7000    8.0300 H       0  HOH0        0.2052
    174 H          -3.2400    7.9400    7.4100 H       0  HOH0        0.2052
    175 O           4.6100   -5.9600   -1.3500 O.3    59  HOH59      -0.4105
    176 H           4.1100   -5.9500   -2.2100 H       0  HOH0        0.2052
    177 H           3.9800   -6.1400   -0.5900 H       0  HOH0        0.2052
    178 O          -7.5100   -0.8600    2.3700 O.3    60  HOH60      -0.4105
    179 H          -8.1100   -1.4800    2.8700 H       0  HOH0        0.2052
    180 H          -7.2000   -1.3000    1.5200 H       0  HOH0        0.2052
    181 O           2.0200    2.8500   -3.6400 O.3    61  HOH61      -0.4105
    182 H           1.2200    3.4500   -3.7700 H       0  HOH0        0.2052
    183 H           1.9200    2.3600   -2.7800 H       0  HOH0        0.2052
    184 O          -2.3000   -4.8500    0.8100 O.3    62  HOH62      -0.4105
    185 H          -2.6200   -3.9100    0.7100 H       0  HOH0        0.2052
    186 H          -3.0600   -5.4800    0.6900 H       0  HOH0        0.2052
    187 O           4.6400   -1.1900    3.2300 O.3    63  HOH63      -0.4105
    188 H           4.9700   -0.8000    4.0900 H       0  HOH0        0.2052
    189 H           5.4000   -1.2600    2.5800 H       0  HOH0        0.2052
    190 O          -4.6200    1.0700    4.2600 O.3    64  HOH64      -0.4105
    191 H          -4.8600    0.7000    3.3600 H       0  HOH0        0.2052
    192 H          -3.6300    1.2300    4.3000 H       0  HOH0        0.2052
    193 O           2.4900   -0.7700   -6.2100 O.3    65  HOH65      -0.4105
    194 H           3.0600   -1.4200   -5.7100 H       0  HOH0        0.2052
    195 H           2.3300   -1.1000   -7.1400 H       0  HOH0        0.2052
    196 O          -9.2200   -1.6400    9.0400 O.3    66  HOH66      -0.4105
    197 H          -8.4200   -2.2100    9.2500 H       0  HOH0        0.2052
    198 H          -9.7100   -2.0400    8.2700 H       0  HOH0        0.2052
    199 O           3.8200    7.0000    4.8000 O.3    67  HOH67      -0.4105
    200 H           4.2700    6.1000    4.7700 H       0  HOH0        0.2052
    201 H           2.8800    6.8900    5.1300 H       0  HOH0        0.2052
    202 O          -3.1500    2.2200   -1.3300 O.3    68  HOH68      -0.4105
    203 H          -3.2000    2.5900   -0.4100 H       0  HOH0        0.2052
    204 H          -3.8700    1.5300   -1.4500 H       0  HOH0        0.2052
    205 O           6.1400    1.2200    1.1700 O.3    69  HOH69      -0.4105
    206 H           7.1200    1.0000    1.2400 H       0  HOH0        0.2052
    207 H           5.8300    1.0500    0.2400 H       0  HOH0        0.2052
    208 O           7.8100    2.6400   -1.1300 O.3    70  HOH70      -0.4105
    209 H           8.4800    2.0300   -0.7000 H       0  HOH0        0.2052
    210 H           7.0800    2.8300   -0.4800 H       0  HOH0        0.2052
    211 O           8.8800   -3.4800   -6.6700 O.3    71  HOH71      -0.4105
    212 H           8.6500   -3.7300   -7.6100 H       0  HOH0        0.2052
    213 H           9.4900   -4.1700   -6.2800 H       0  HOH0        0.2052
    214 O          -5.1100    5.9000   -4.2900 O.3    72  HOH72      -0.4105
    215 H          -4.8300    5.4700   -3.4400 H       0  HOH0        0.2052
    216 H          -4.8600    6.8600   -4.2800 H       0  HOH0        0.2052
    217 O           8.0300   -4.6000    9.2400 O.3    73  HOH73      -0.4105
    218 H           8.9300   -4.4600    8.8200 H       0  HOH0        0.2052
    219 H           7.3200   -4.5800    8.5300 H       0  HOH0        0.2052
    220 O           9.2200    5.0300    8.9900 O.3    74  HOH74      -0.4105
    221 H           8.9700    4.9400    8.0300 H       0  HOH0        0.2052
    222 H           9.7000    4.2100    9.3000 H       0  HOH0        0.2052
    223 O           5.3900    0.6400    5.1200 O.3    75  HOH75      -0.4105
    224 H           4.5800    0.6500    5.7000 H       0  HOH0        0.2052
    225 H           5.4200    1.4700    4.5700 H       0  HOH0        0.2052
    226 O          -4.2800   -6.7400    0.4100 O.3    76  HOH76      -0.4105
    227 H          -3.9600   -7.5000    0.9800 H       0  HOH0        0.2052
    228 H          -5.2000   -6.4700    0.7100 H       0  HOH0        0.2052
    229 O           2.9700    0.3500    1.7100 O.3    77  HOH77      -0.4105
    230 H           3.4600    1.1900    1.5000 H       0  HOH0        0.2052
    231 H           3.5900   -0.3000    2.1600 H       0  HOH0        0.2052
    232 O          -9.2700    2.3600    4.8000 O.3    78  HOH78      -0.4105
    233 H          -9.7500    2.7700    4.0200 H       0  HOH0        0.2052
    234 H          -8.2800    2.3400    4.6100 H       0  HOH0        0.2052
    235 O          -7.8600    6.8300   -3.9800 O.3    79  HOH79      -0.4105
    236 H          -8.6600    6.2200   -3.9500 H       0  HOH0        0.2052
    237 H          -7.0500    6.3000   -4.2200 H       0  HOH0        0.2052
    238 O          -6.3500   -2.9200    7.9300 O.3    80  HOH80      -0.4105
    239 H          -6.1400   -2.1800    7.2800 H       0  HOH0        0.2052
    240 H          -5.6700   -2.9200    8.6600 H       0  HOH0        0.2052
    241 O           4.5900   -7.1000    7.4100 O.3    81  HOH81      -0.4105
    242 H           3.8800   -7.3700    8.0600 H       0  HOH0        0.2052
    243 H           4.3300   -7.3800    6.4800 H       0  HOH0        0.2052
    244 O          -5.9100   -0.6500    5.9100 O.3    82  HOH82      -0.4105
    245 H          -5.4700   -0.0100    5.2700 H       0  HOH0        0.2052
    246 H          -6.4100   -0.1300    6.6100 H       0  HOH0        0.2052
    247 O          -8.3000    5.4900    0.1600 O.3    83  HOH83      -0.4105
    248 H          -8.7100    6.3100   -0.2300 H       0  HOH0        0.2052
    249 H          -7.6600    5.7500    0.8900 H       0  HOH0        0.2052
    250 O           0.7800    5.5600   -4.7600 O.3    84  HOH84      -0.4105
    251 H           1.7000    5.5500   -5.1700 H       0  HOH0        0.2052
    252 H           0.7200    6.3000   -4.0900 H       0  HOH0        0.2052
    253 O           5.6100    2.2200   -7.1500 O.3    85  HOH85      -0.4105
    254 H           5.9900    1.3800   -6.7800 H       0  HOH0        0.2052
    255 H           4.7300    2.4100   -6.7100 H       0  HOH0        0.2052
    256 O           8.6600    4.5400    6.4200 O.3    86  HOH86      -0.4105
    257 H           8.3400    5.2600    5.8000 H       0  HOH0        0.2052
    258 H           8.9000    3.7300    5.8900 H       0  HOH0        0.2052
    259 O          -8.4500    0.3900    7.5300 O.3    87  HOH87      -0.4105
    260 H          -9.1700    0.4400    6.8400 H       0  HOH0        0.2052
    261 H          -8.6900   -0.3000    8.2200 H       0  HOH0        0.2052
    262 O          -4.3300   -6.8900    8.6700 O.3    88  HOH88      -0.4105
    263 H          -4.8800   -7.7300    8.6000 H       0  HOH0        0.2052
    264 H          -4.0700   -6.6000    7.7500 H       0  HOH0        0.2052
    265 O          -3.9600    5.9000   -8.7000 O.3    89  HOH89      -0.4105
    266 H          -4.2600    4.9500   -8.6300 H       0  HOH0        0.2052
    267 H          -3.2300    6.0600   -8.0400 H       0  HOH0        0.2052
    268 O          -0.0500    8.3300    3.7700 O.3    90  HOH90      -0.4105
    269 H           0.3700    7.6900    4.4100 H       0  HOH0        0.2052
    270 H          -0.4300    7.8200    2.9900 H       0  HOH0        0.2052
    271 O           4.8800   -4.7700    1.7400 O.3    91  HOH91      -0.4105
    272 H           4.0100   -4.9200    2.2100 H       0  HOH0        0.2052
    273 H           4.7100   -4.5100    0.7900 H       0  HOH0        0.2052
    274 O          -1.9800   -5.8200    6.5700 O.3    92  HOH92      -0.4105
    275 H          -0.9900   -5.7400    6.7100 H       0  HOH0        0.2052
    276 H          -2.4300   -4.9800    6.8800 H       0  HOH0        0.2052
    277 O          -4.7200    5.7500    0.7800 O.3    93  HOH93      -0.4105
    278 H          -5.2600    5.5400    1.5900 H       0  HOH0        0.2052
    279 H          -3.8100    5.3400    0.8700 H       0  HOH0        0.2052
    280 O           5.2700    2.5600    3.2800 O.3    94  HOH94      -0.4105
    281 H           5.5400    1.9700    2.5300 H       0  HOH0        0.2052
    282 H           5.2700    3.5100    2.9700 H       0  HOH0        0.2052
    283 O          -1.0800   -6.3900   -2.7400 O.3    95  HOH95      -0.4105
    284 H          -0.1700   -6.7800   -2.8700 H       0  HOH0        0.2052
    285 H          -1.0000   -5.4300   -2.5000 H       0  HOH0        0.2052
    286 O          -7.9800   -5.1500   -5.2200 O.3    96  HOH96      -0.4105
    287 H          -8.7800   -5.3800   -4.6700 H       0  HOH0        0.2052
    288 H          -7.1500   -5.4100   -4.7300 H       0  HOH0        0.2052
    289 O          -2.7000   -2.3300   -2.3700 O.3    97  HOH97      -0.4105
    290 H          -2.4300   -1.9900   -3.2700 H       0  HOH0        0.2052
    291 H          -1.9100   -2.7100   -1.9100 H       0  HOH0        0.2052
    292 O          -7.5100   -6.6700   -7.6200 O.3    98  HOH98      -0.4105
    293 H          -7.9100   -6.2300   -6.8100 H       0  HOH0        0.2052
    294 H          -7.9200   -6.3000   -8.4500 H       0  HOH0        0.2052
    295 O          -2.2400   -7.6300   -7.8300 O.3    99  HOH99      -0.4105
    296 H          -2.1900   -6.8200   -7.2400 H       0  HOH0        0.2052
    297 H          -3.1000   -7.6100   -8.3400 H       0  HOH0        0.2052
    298 O           9.1500    0.8900   -4.6000 O.3   100  HOH100     -0.4105
    299 H           9.4000    0.6900   -5.5500 H       0  HOH0        0.2052
    300 H           9.8700    1.4500   -4.1800 H       0  HOH0        0.2052
    301 O          -8.8200   -7.4600   -1.4300 O.3   101  HOH101     -0.4105
    302 H          -9.8100   -7.4000   -1.3300 H       0  HOH0        0.2052
    303 H          -8.5900   -8.2600   -1.9900 H       0  HOH0        0.2052
    304 O           7.0500   -8.1200    3.6800 O.3   102  HOH102     -0.4105
    305 H           6.9100   -8.0500    4.6700 H       0  HOH0        0.2052
    306 H           7.8900   -8.6300    3.5000 H       0  HOH0        0.2052
    307 O           4.1000    8.1300   -6.1100 O.3   103  HOH103     -0.4105
    308 H           4.9600    8.2500   -5.6100 H       0  HOH0        0.2052
    309 H           3.6800    7.2600   -5.8400 H       0  HOH0        0.2052
    310 O          -5.8800    3.8600   -6.0000 O.3   104  HOH104     -0.4105
    311 H          -5.6700    4.6000   -5.3600 H       0  HOH0        0.2052
    312 H          -6.7700    4.0300   -6.4300 H       0  HOH0        0.2052
    313 O           0.6400   -2.9800   -5.3100 O.3   105  HOH105     -0.4105
    314 H           0.1800   -2.1600   -5.6500 H       0  HOH0        0.2052
    315 H           1.6200   -2.7900   -5.2200 H       0  HOH0        0.2052
    316 O           3.6700   -7.6200    5.0100 O.3   106  HOH106     -0.4105
    317 H           3.6000   -6.7900    4.4500 H       0  HOH0        0.2052
    318 H           3.7100   -8.4200    4.4100 H       0  HOH0        0.2052
    319 O           5.6600    5.3700    8.6500 O.3   107  HOH107     -0.4105
    320 H           5.7800    6.0300    7.9100 H       0  HOH0        0.2052
    321 H           6.1200    5.7100    9.4800 H       0  HOH0        0.2052
    322 O          -6.1000   -5.1400    3.8800 O.3   108  HOH108     -0.4105
    323 H          -5.6000   -4.3700    4.2800 H       0  HOH0        0.2052
    324 H          -7.0500   -5.1200    4.2000 H       0  HOH0        0.2052
    325 O          -5.9000   -4.1700   -7.2000 O.3   109  HOH109     -0.4105
    326 H          -5.4300   -4.0400   -6.3300 H       0  HOH0        0.2052
    327 H          -6.5600   -4.9100   -7.1100 H       0  HOH0        0.2052
    328 O          -2.8000    6.3900    4.7200 O.3   110  HOH110     -0.4105
    329 H          -3.1100    7.0000    5.4500 H       0  HOH0        0.2052
    330 H          -2.3000    6.9100    4.0300 H       0  HOH0        0.2052
    331 O           3.5400   -3.5200   -5.3300 O.3   111  HOH111     -0.4105
    332 H           3.3300   -3.9600   -6.2000 H       0  HOH0        0.2052
    333 H           4.5100   -3.2600   -5.3000 H       0  HOH0        0.2052
    334 O           4.0200    7.5100   -2.6400 O.3   112  HOH112     -0.4105
    335 H           4.7000    8.0600   -3.1100 H       0  HOH0        0.2052
    336 H           4.4200    6.6300   -2.3700 H       0  HOH0        0.2052
    337 O          -2.7500    7.7900   -1.9200 O.3   113  HOH113     -0.4105
    338 H          -3.6700    8.1700   -1.9700 H       0  HOH0        0.2052
    339 H          -2.1500    8.2600   -2.5700 H       0  HOH0        0.2052
    340 O          -8.4900    1.0500   -0.9200 O.3   114  HOH114     -0.4105
    341 H          -8.4300    1.9000   -1.4400 H       0  HOH0        0.2052
    342 H          -8.1700    0.2900   -1.4900 H       0  HOH0        0.2052
    343 O           5.0400    0.5000   -1.2200 O.3   115  HOH115     -0.4105
    344 H           4.6200   -0.0700   -1.9200 H       0  HOH0        0.2052
    345 H           4.3800    1.1900   -0.9000 H       0  HOH0        0.2052
    346 O           5.7300    8.7000   -8.3300 O.3   116  HOH116     -0.4105
    347 H           6.1700    9.5900   -8.4200 H       0  HOH0        0.2052
    348 H           5.1000    8.7000   -7.5600 H       0  HOH0        0.2052
    349 O          -5.0200    8.6200   -8.1700 O.3   117  HOH117     -0.4105
    350 H          -5.7700    8.6200   -8.8300 H       0  HOH0        0.2052
    351 H          -4.6500    7.7000   -8.0800 H       0  HOH0        0.2052
    352 O          -6.5300    5.2500    2.7500 O.3   118  HOH118     -0.4105
    353 H          -6.4000    4.4100    3.2900 H       0  HOH0        0.2052
    354 H          -6.8200    5.9900    3.3500 H       0  HOH0        0.2052
    355 O           3.0700    2.1300   -6.3100 O.3   119  HOH119     -0.4105
    356 H           2.8400    2.5000   -5.4100 H       0  HOH0        0.2052
    357 H           2.7700    1.1800   -6.3700 H       0  HOH0        0.2052
    358 O           0.3700   -5.5200   -5.8000 O.3   120  HOH120     -0.4105
    359 H           0.9000   -6.0100   -5.1200 H       0  HOH0        0.2052
    360 H           0.5900   -4.5400   -5.7500 H       0  HOH0        0.2052
    361 O           7.3200    6.3400   -7.9800 O.3   121  HOH121     -0.4105
    362 H           7.9100    6.0800   -8.7400 H       0  HOH0        0.2052
    363 H           7.0400    7.3000   -8.0900 H       0  HOH0        0.2052
    364 O          -1.3400   -9.2700   -0.0800 O.3   122  HOH122     -0.4105
    365 H          -1.8000   -9.3400   -0.9700 H       0  HOH0        0.2052
    366 H          -1.9600   -8.8300    0.5800 H       0  HOH0        0.2052
    367 O           3.0700    0.6300    6.1800 O.3   123  HOH123     -0.4105
    368 H           2.9600    1.5700    6.5100 H       0  HOH0        0.2052
    369 H           3.0200   -0.0000    6.9500 H       0  HOH0        0.2052
    370 O          -2.4000    3.6700    3.7400 O.3   124  HOH124     -0.4105
    371 H          -2.3800    2.9100    4.3800 H       0  HOH0        0.2052
    372 H          -2.8800    4.4400    4.1400 H       0  HOH0        0.2052
    373 O          -8.3900    7.6600   -8.9600 O.3   125  HOH125     -0.4105
    374 H          -8.2400    7.8700   -8.0000 H       0  HOH0        0.2052
    375 H          -8.6900    6.7100   -9.0500 H       0  HOH0        0.2052
    376 O          -8.8200   -2.8900   -1.6200 O.3   126  HOH126     -0.4105
    377 H          -9.0200   -2.4500   -2.5000 H       0  HOH0        0.2052
    378 H          -8.4300   -3.8000   -1.7800 H       0  HOH0        0.2052
    379 O          -0.0300   -3.4400   -2.5700 O.3   127  HOH127     -0.4105
    380 H           0.1100   -3.1700   -3.5200 H       0  HOH0        0.2052
    381 H           0.8000   -3.2200   -2.0400 H       0  HOH0        0.2052
    382 O           3.5000    8.9800   -0.5800 O.3   128  HOH128     -0.4105
    383 H           4.2600    9.4200   -0.1000 H       0  HOH0        0.2052
    384 H           3.8500    8.5100   -1.4000 H       0  HOH0        0.2052
    385 O          -3.2200    2.7400    1.2500 O.3   129  HOH129     -0.4105
    386 H          -3.8300    1.9900    1.4800 H       0  HOH0        0.2052
    387 H          -3.0000    3.2600    2.0800 H       0  HOH0        0.2052
    388 O          -5.5900    8.3800    0.4200 O.3   130  HOH130     -0.4105
    389 H          -5.2500    7.4500    0.5700 H       0  HOH0        0.2052
    390 H          -5.4100    8.6500   -0.5300 H       0  HOH0        0.2052
    391 O          -7.9400   -5.2900    8.4900 O.3   131  HOH131     -0.4105
    392 H          -7.8700   -6.1300    7.9400 H       0  HOH0        0.2052
    393 H          -7.3200   -4.6000    8.1300 H       0  HOH0        0.2052
    394 O           3.1900    8.1000   -9.1300 O.3   132  HOH132     -0.4105
    395 H           4.1200    8.4600   -9.0800 H       0  HOH0        0.2052
    396 H           3.1300    7.2500   -8.6100 H       0  HOH0        0.2052
    397 O           3.3900    5.0900   -8.5600 O.3   133  HOH133     -0.4105
    398 H           2.8700    4.2600   -8.7300 H       0  HOH0        0.2052
    399 H           4.1600    5.1400   -9.2000 H       0  HOH0        0.2052
    400 O           5.1100    4.1500   -0.5400 O.3   134  HOH134     -0.4105
    401 H           4.9300    4.6000    0.3400 H       0  HOH0        0.2052
    402 H           5.5300    4.8000   -1.1700 H       0  HOH0        0.2052
    403 O          -7.2400    3.8000   -1.8400 O.3   135  HOH135     -0.4105
    404 H          -7.6900    4.4300   -1.2000 H       0  HOH0        0.2052
    405 H          -6.3100    4.1100   -2.0100 H       0  HOH0        0.2052
    406 O          -7.0200    2.0700   -3.8500 O.3   136  HOH136     -0.4105
    407 H          -7.0200    2.7100   -3.0800 H       0  HOH0        0.2052
    408 H          -6.7400    2.5500   -4.6800 H       0  HOH0        0.2052
    409 O           0.0800   -5.3600    2.0000 O.3   137  HOH137     -0.4105
    410 H          -0.8500   -5.1500    1.6900 H       0  HOH0        0.2052
    411 H           0.1800   -6.3500    2.1300 H       0  HOH0        0.2052
    412 O           0.8800   -0.6100    9.2700 O.3   138  HOH138     -0.4105
    413 H           0.4600   -1.4700    9.0000 H       0  HOH0        0.2052
    414 H           1.8200   -0.5800    8.9300 H       0  HOH0        0.2052
    415 O           5.0400   -2.9400    9.1000 O.3   139  HOH139     -0.4105
    416 H           5.7000   -2.2000    9.1900 H       0  HOH0        0.2052
    417 H           5.4800   -3.7300    8.6800 H       0  HOH0        0.2052
    418 O          -8.6000    7.9600   -6.2400 O.3   140  HOH140     -0.4105
    419 H          -8.1900    7.6400   -5.3800 H       0  HOH0        0.2052
    420 H          -9.5600    7.6900   -6.2700 H       0  HOH0        0.2052
    421 O           0.4000    5.4400   -7.4800 O.3   141  HOH141     -0.4105
    422 H           1.2500    5.1100   -7.8900 H       0  HOH0        0.2052
    423 H           0.5300    5.5900   -6.5000 H       0  HOH0        0.2052
    424 O           1.8900    5.2000   -1.4000 O.3   142  HOH142     -0.4105
    425 H           2.4800    4.8000   -2.1000 H       0  HOH0        0.2052
    426 H           1.3100    5.9100   -1.8100 H       0  HOH0        0.2052
    427 O          -4.9300   -9.1200   -2.0200 O.3   143  HOH143     -0.4105
    428 H          -4.5400   -8.2300   -1.8200 H       0  HOH0        0.2052
    429 H          -4.8300   -9.3200   -2.9900 H       0  HOH0        0.2052
    430 O           8.1500    5.7200    3.2500 O.3   144  HOH144     -0.4105
    431 H           8.2200    4.8300    2.7900 H       0  HOH0        0.2052
    432 H           7.2100    6.0600    3.1700 H       0  HOH0        0.2052
    433 O          -2.0500    6.0400   -6.5600 O.3   145  HOH145     -0.4105
    434 H          -2.4300    5.3500   -5.9400 H       0  HOH0        0.2052
    435 H          -1.2300    5.6800   -7.0000 H       0  HOH0        0.2052
    436 O           2.5200   -2.9800   -1.1800 O.3   146  HOH146     -0.4105
    437 H           2.2200   -2.4100   -0.4200 H       0  HOH0        0.2052
    438 H           2.4500   -3.9500   -0.9200 H       0  HOH0        0.2052
    439 O           6.7100    4.6400   -5.9300 O.3   147  HOH147     -0.4105
    440 H           6.3700    3.7500   -6.2300 H       0  HOH0        0.2052
    441 H           6.9700    5.1800   -6.7300 H       0  HOH0        0.2052
    442 O           9.3000   -1.8400   -3.9700 O.3   148  HOH148     -0.4105
    443 H           9.0600   -2.0200   -4.9200 H       0  HOH0        0.2052
    444 H           9.6000   -0.9000   -3.8700 H       0  HOH0        0.2052
    445 O           4.7300    5.0000    1.9100 O.3   149  HOH149     -0.4105
    446 H           5.3400    5.8000    1.9500 H       0  HOH0        0.2052
    447 H           3.7800    5.3100    1.9800 H       0  HOH0        0.2052
    448 O           1.5900   -7.2500   -3.9600 O.3   150  HOH150     -0.4105
    449 H           1.8100   -7.8600   -3.2000 H       0  HOH0        0.2052
    450 H           1.6900   -7.7400   -4.8200 H       0  HOH0        0.2052
    451 O          -5.1500   -8.0300   -6.2800 O.3   151  HOH151     -0.4105
    452 H          -4.9100   -8.6600   -7.0200 H       0  HOH0        0.2052
    453 H          -6.0500   -7.6300   -6.4600 H       0  HOH0        0.2052
    454 O          -5.6000    8.5500    3.0900 O.3   152  HOH152     -0.4105
    455 H          -6.4600    8.2400    3.5100 H       0  HOH0        0.2052
    456 H          -5.6400    8.4100    2.1000 H       0  HOH0        0.2052
    457 O          -1.0300   -1.1500   -7.0800 O.3   153  HOH153     -0.4105
    458 H          -0.4200   -0.8500   -7.8100 H       0  HOH0        0.2052
    459 H          -1.4100   -2.0400   -7.3000 H       0  HOH0        0.2052
    460 O          -6.1000   -1.3100   -7.3400 O.3   154  HOH154     -0.4105
    461 H          -5.2600   -1.2600   -7.8800 H       0  HOH0        0.2052
    462 H          -6.3300   -2.2700   -7.1600 H       0  HOH0        0.2052
    463 O           0.8300   -6.0400   -8.4000 O.3   155  HOH155     -0.4105
    464 H           0.7800   -6.0500   -7.4000 H       0  HOH0        0.2052
    465 H           0.0000   -6.4500   -8.7800 H       0  HOH0        0.2052
    466 O           6.8800   -2.0000   -1.4600 O.3   156  HOH156     -0.4105
    467 H           6.3200   -1.1900   -1.3700 H       0  HOH0        0.2052
    468 H           7.4000   -1.9600   -2.3200 H       0  HOH0        0.2052
    469 O           9.0300    0.8600    1.3300 O.3   157  HOH157     -0.4105
    470 H           9.5400    0.8700    0.4700 H       0  HOH0        0.2052
    471 H           9.5900    0.4400    2.0400 H       0  HOH0        0.2052
    472 O          -1.3600    1.3500    5.2300 O.3   158  HOH158     -0.4105
    473 H          -0.6300    1.1800    4.5600 H       0  HOH0        0.2052
    474 H          -1.6700    0.4800    5.6100 H       0  HOH0        0.2052
    475 O          -4.7400   -2.8900    4.7700 O.3   159  HOH159     -0.4105
    476 H          -4.0700   -2.7700    4.0300 H       0  HOH0        0.2052
    477 H          -5.1400   -2.0000    5.0000 H       0  HOH0        0.2052
    478 O           1.3000   -0.6800   -0.1100 O.3   160  HOH160     -0.4105
    479 H           0.8900   -1.4200    0.4200 H       0  HOH0        0.2052
    480 H           1.9400   -0.1700    0.4700 H       0  HOH0        0.2052
    481 O          -5.8200    9.2700    6.7200 O.3   161  HOH161     -0.4105
    482 H          -5.2200    8.4600    6.7400 H       0  HOH0        0.2052
    483 H          -5.4200    9.9600    6.1200 H       0  HOH0        0.2052
    484 O           8.3000   -5.8900   -4.4000 O.3   162  HOH162     -0.4105
    485 H           8.2500   -5.5600   -3.4500 H       0  HOH0        0.2052
    486 H           7.4400   -5.7000   -4.8600 H       0  HOH0        0.2052
    487 O           6.7200   -2.4600    1.5400 O.3   163  HOH163     -0.4105
    488 H           6.8100   -2.3600    0.5500 H       0  HOH0        0.2052
    489 H           6.3200   -3.3500    1.7500 H       0  HOH0        0.2052
    490 O          -2.1200   -1.4200   -4.6800 O.3   164  HOH164     -0.4105
    491 H          -1.5900   -1.3200   -5.5200 H       0  HOH0        0.2052
    492 H          -2.3900   -0.5200   -4.3400 H       0  HOH0        0.2052
    493 O          -0.2100    1.7500   -8.9900 O.3   165  HOH165     -0.4105
    494 H           0.1800    0.9000   -9.3500 H       0  HOH0        0.2052
    495 H          -1.1900    1.7700   -9.1800 H       0  HOH0        0.2052
    496 O           2.6300    3.2600    7.2000 O.3   166  HOH166     -0.4105
    497 H           1.8400    3.7700    6.8600 H       0  HOH0        0.2052
    498 H           2.5400    3.1100    8.1800 H       0  HOH0        0.2052
    499 O          -6.6800   -2.5000    0.3100 O.3   167  HOH167     -0.4105
    500 H          -6.6200   -3.4300    0.6800 H       0  HOH0        0.2052
    501 H          -7.2700   -2.5000   -0.4900 H       0  HOH0        0.2052
    502 O           8.2200   -8.6000   -4.9000 O.3   168  HOH168     -0.4105
    503 H           8.6200   -8.6100   -5.8200 H       0  HOH0        0.2052
    504 H           8.3200   -7.6800   -4.5000 H       0  HOH0        0.2052
    505 O           9.1600    9.1000    2.9100 O.3   169  HOH169     -0.4105
    506 H           9.7900    9.4800    2.2300 H       0  HOH0        0.2052
    507 H           9.5600    8.2700    3.3000 H       0  HOH0        0.2052
    508 O          -3.5800   -2.5500    0.4400 O.3   170  HOH170     -0.4105
    509 H          -4.5000   -2.1800    0.5100 H       0  HOH0        0.2052
    510 H          -3.2000   -2.3500   -0.4600 H       0  HOH0        0.2052
    511 O           3.7200   -5.7400   -3.7200 O.3   171  HOH171     -0.4105
    512 H           3.5900   -4.8100   -4.0600 H       0  HOH0        0.2052
    513 H           2.8800   -6.2600   -3.8500 H       0  HOH0        0.2052
    514 O          -2.4800   -5.7000   -5.7300 O.3   172  HOH172     -0.4105
    515 H          -1.8800   -5.6700   -4.9300 H       0  HOH0        0.2052
    516 H          -3.2300   -5.0600   -5.6000 H       0  HOH0        0.2052
    517 O          -8.2300   -7.6400    6.9600 O.3   173  HOH173     -0.4105
    518 H          -8.9300   -8.1100    7.5000 H       0  HOH0        0.2052
    519 H          -7.6400   -8.3200    6.5300 H       0  HOH0        0.2052
    520 O          -8.4800    2.3600   -8.9100 O.3   174  HOH174     -0.4105
    521 H          -8.5600    2.0000   -9.8400 H       0  HOH0        0.2052
    522 H          -8.5000    1.6000   -8.2600 H       0  HOH0        0.2052
    523 O           5.9000   -3.7500    4.9100 O.3   175  HOH175     -0.4105
    524 H           6.3200   -4.3300    4.2100 H       0  HOH0        0.2052
    525 H           5.4600   -2.9600    4.4700 H       0  HOH0        0.2052
    526 O          -1.5300    3.8500   -4.8100 O.3   176  HOH176     -0.4105
    527 H          -0.8000    4.5400   -4.7700 H       0  HOH0        0.2052
    528 H          -1.2500    3.1000   -5.4000 H       0  HOH0        0.2052
    529 O           2.5500   -5.1400    2.9000 O.3   177  HOH177     -0.4105
    530 H           1.5900   -5.1300    2.6300 H       0  HOH0        0.2052
    531 H           2.6700   -4.6100    3.7400 H       0  HOH0        0.2052
    532 O           1.0500   -8.4900   -1.3600 O.3   178  HOH178     -0.4105
    533 H           0.2800   -8.8200   -0.8200 H       0  HOH0        0.2052
    534 H           1.9000   -8.7900   -0.9400 H       0  HOH0        0.2052
    535 O           6.7200    2.0300   -3.7300 O.3   179  HOH179     -0.4105
    536 H           7.6200    1.8700   -4.1300 H       0  HOH0        0.2052
    537 H           6.8000    2.0800   -2.7400 H       0  HOH0        0.2052
    538 O           0.7500    3.4500    0.3300 O.3   180  HOH180     -0.4105
    539 H          -0.1700    3.1700    0.0400 H       0  HOH0        0.2052
    540 H           1.0600    4.2200   -0.2300 H       0  HOH0        0.2052
    541 O          -4.2200    8.5600   -4.6400 O.3   181  HOH181     -0.4105
    542 H          -4.7900    9.0800   -5.2700 H       0  HOH0        0.2052
    543 H          -3.2600    8.6800   -4.8800 H       0  HOH0        0.2052
    544 O           0.7200    1.6600    3.1800 O.3   182  HOH182     -0.4105
    545 H           0.5500    2.4900    2.6400 H       0  HOH0        0.2052
    546 H           1.6200    1.2900    2.9600 H       0  HOH0        0.2052
    547 O          -6.7900   -5.2700    1.1900 O.3   183  HOH183     -0.4105
    548 H          -7.7800   -5.3800    1.2100 H       0  HOH0        0.2052
    549 H          -6.4500   -5.1200    2.1200 H       0  HOH0        0.2052
    550 O           6.1300    8.4200   -4.3100 O.3   184  HOH184     -0.4105
    551 H           6.6900    9.2300   -4.4800 H       0  HOH0        0.2052
    552 H           6.7200    7.6200   -4.2800 H       0  HOH0        0.2052
    553 O          -3.6900   -0.9500   -9.0300 O.3   185  HOH185     -0.4105
    554 H          -3.3600   -0.3100   -9.7200 H       0  HOH0        0.2052
    555 H          -3.0300   -1.0100   -8.2800 H       0  HOH0        0.2052
    556 O           7.1600    5.6500   -1.5400 O.3   186  HOH186     -0.4105
    557 H           7.3500    6.3000   -0.8000 H       0  HOH0        0.2052
    558 H           7.7600    4.8500   -1.4500 H       0  HOH0        0.2052
    559 O          -4.1200   -6.4200   -2.2900 O.3   187  HOH187     -0.4105
    560 H          -4.2100   -6.5200   -1.3000 H       0  HOH0        0.2052
    561 H          -3.1600   -6.4900   -2.5500 H       0  HOH0        0.2052
    562 O           3.9000   -1.2100   -3.0200 O.3   188  HOH188     -0.4105
    563 H           2.9900   -0.8000   -3.0400 H       0  HOH0        0.2052
    564 H           3.8300   -2.1500   -2.7000 H       0  HOH0        0.2052
    565 O          -1.8800    8.8300   -6.0800 O.3   189  HOH189     -0.4105
    566 H          -2.1500    7.9400   -6.4500 H       0  HOH0        0.2052
    567 H          -1.8700    9.5100   -6.8100 H       0  HOH0        0.2052
    568 O          -6.3700    3.2500    4.4900 O.3   190  HOH190     -0.4105
    569 H          -5.7200    2.5100    4.3800 H       0  HOH0        0.2052
    570 H          -6.1700    3.7500    5.3300 H       0  HOH0        0.2052
    571 O           5.9400    7.4500    6.5200 O.3   191  HOH191     -0.4105
    572 H           6.4400    8.3000    6.3300 H       0  HOH0        0.2052
    573 H           5.0600    7.4700    6.0400 H       0  HOH0        0.2052
    574 O          -0.8500    3.4200   -2.2000 O.3   192  HOH192     -0.4105
    575 H          -1.0200    3.7300   -3.1400 H       0  HOH0        0.2052
    576 H          -1.6900    3.0500   -1.8200 H       0  HOH0        0.2052
    577 O          -1.3200   -9.2800   -3.4500 O.3   193  HOH193     -0.4105
    578 H          -0.9400   -8.3700   -3.3000 H       0  HOH0        0.2052
    579 H          -1.4000   -9.4500   -4.4400 H       0  HOH0        0.2052
    580 O           8.5900   -4.8800    0.1600 O.3   194  HOH194     -0.4105
    581 H           8.1300   -4.7300    1.0400 H       0  HOH0        0.2052
    582 H           9.0300   -4.0300   -0.1400 H       0  HOH0        0.2052
    583 O           6.6100   -0.7200   -9.0900 O.3   195  HOH195     -0.4105
    584 H           6.1500    0.1600   -9.2200 H       0  HOH0        0.2052
    585 H           7.6000   -0.6000   -9.1600 H       0  HOH0        0.2052
    586 O          -4.5400   -0.1100   -1.4200 O.3   196  HOH196     -0.4105
    587 H          -5.5000   -0.2200   -1.6900 H       0  HOH0        0.2052
    588 H          -3.9800   -0.7800   -1.9000 H       0  HOH0        0.2052
    589 O           8.5900   -9.0600    8.6100 O.3   197  HOH197     -0.4105
    590 H           9.1300   -9.7500    9.0900 H       0  HOH0        0.2052
    591 H           8.2700   -8.3700    9.2700 H       0  HOH0        0.2052
    592 O          -7.7900   -8.7800    0.8700 O.3   198  HOH198     -0.4105
    593 H          -8.0200   -8.2500    0.0500 H       0  HOH0        0.2052
    594 H          -6.9800   -9.3400    0.6800 H       0  HOH0        0.2052
    595 O          -0.0100   -2.9300    8.5100 O.3   199  HOH199     -0.4105
    596 H          -0.7200   -3.0500    7.8100 H       0  HOH0        0.2052
    597 H           0.0000   -3.7200    9.1100 H       0  HOH0        0.2052
    598 O           2.2100   -5.4800   -0.1800 O.3   200  HOH200     -0.4105
    599 H           1.5600   -6.2100   -0.3900 H       0  HOH0        0.2052
    600 H           2.2500   -5.3400    0.8000 H       0  HOH0        0.2052
    601 O           0.7900   -6.2200    6.5300 O.3   201  HOH201     -0.4105
    602 H           0.7800   -6.6900    7.4100 H       0  HOH0        0.2052
    603 H           1.6100   -6.5000    6.0200 H       0  HOH0        0.2052
    604 O           6.7200   -4.7100   -2.3800 O.3   202  HOH202     -0.4105
    605 H           5.9400   -5.2100   -2.0000 H       0  HOH0        0.2052
    606 H           6.6900   -3.7600   -2.0700 H       0  HOH0        0.2052
    607 O          -0.3800    1.9200   -6.3500 O.3   203  HOH203     -0.4105
    608 H          -0.4200    1.0200   -5.9100 H       0  HOH0        0.2052
    609 H          -0.3500    1.8100   -7.3400 H       0  HOH0        0.2052
    610 O           4.2800    4.2400    5.2000 O.3   204  HOH204     -0.4105
    611 H           4.5800    3.5200    4.5800 H       0  HOH0        0.2052
    612 H           3.8900    3.8400    6.0300 H       0  HOH0        0.2052
    613 O          -1.5700   -3.7500   -7.5800 O.3   205  HOH205     -0.4105
    614 H          -2.5000   -4.0000   -7.8500 H       0  HOH0        0.2052
    615 H          -1.3100   -4.2500   -6.7600 H       0  HOH0        0.2052
    616 O           3.1700    5.4700   -5.8200 O.3   206  HOH206     -0.4105
    617 H           3.5500    4.8800   -5.1000 H       0  HOH0        0.2052
    618 H           3.5700    5.2100   -6.7000 H       0  HOH0        0.2052
    619 O           8.1200   -2.7600    6.8700 O.3   207  HOH207     -0.4105
    620 H           8.4400   -2.6600    5.9300 H       0  HOH0        0.2052
    621 H           7.3300   -3.3800    6.8900 H       0  HOH0        0.2052
    622 O          -4.3800    2.1400   -7.5000 O.3   208  HOH208     -0.4105
    623 H          -3.8600    1.4900   -6.9500 H       0  HOH0        0.2052
    624 H          -4.8700    2.7700   -6.8900 H       0  HOH0        0.2052
    625 O          -8.6100    0.3400   -7.0800 O.3   209  HOH209     -0.4105
    626 H          -9.2400   -0.3800   -7.3900 H       0  HOH0        0.2052
    627 H          -7.6800   -0.0200   -7.0800 H       0  HOH0        0.2052
    628 O           7.7000   -5.3200    3.0100 O.3   210  HOH210     -0.4105
    629 H           7.2400   -6.1900    3.1800 H       0  HOH0        0.2052
    630 H           8.6100   -5.3500    3.4200 H       0  HOH0        0.2052
    631 O           6.1800   -2.9500   -5.7800 O.3   211  HOH211     -0.4105
    632 H           6.1300   -2.1300   -5.2100 H       0  HOH0        0.2052
    633 H           7.0700   -2.9800   -6.2300 H       0  HOH0        0.2052
    634 O          -5.1000    0.5200    1.6800 O.3   212  HOH212     -0.4105
    635 H          -4.7500    0.1100    0.8400 H       0  HOH0        0.2052
    636 H          -6.0000    0.1400    1.8800 H       0  HOH0        0.2052
    637 O          -5.6200    4.5300    6.9100 O.3   213  HOH213     -0.4105
    638 H          -6.2100    5.3300    6.9500 H       0  HOH0        0.2052
    639 H          -5.4700    4.1800    7.8400 H       0  HOH0        0.2052
    640 O          -2.6900    2.2100    8.8200 O.3   214  HOH214     -0.4105
    641 H          -3.5300    2.2000    9.3600 H       0  HOH0        0.2052
    642 H          -2.6700    3.0400    8.2600 H       0  HOH0        0.2052
    643 O           0.3900   -7.8500    3.0000 O.3   215  HOH215     -0.4105
    644 H           1.3800   -7.9600    2.9100 H       0  HOH0        0.2052
    645 H          -0.0100   -8.7100    3.3200 H       0  HOH0        0.2052
    646 O           8.7500   -2.1600    3.3700 O.3   216  HOH216     -0.4105
    647 H           7.9800   -2.5100    2.8300 H       0  HOH0        0.2052
    648 H           8.4300   -1.4500    3.9900 H       0  HOH0        0.2052
@<TRIPOS>BOND
     1   521   520    1
     2   554   553    1
     3   111   109    1
     4   494   493    1
     5   119   118    1
     6   584   583    1
     7   399   397    1
     8   118   120    1
     9   495   493    1
    10   585   583    1
    11   394   395    1
    12   394   396    1
    13   109   110    1
    14   375   373    1
    15   553   555    1
    16   373   374    1
    17   520   522    1
    18   350   349    1
    19   465   463    1
    20     6     4    1
    21    27    25    1
    22   362   361    1
    23   398   397    1
    24   265   266    1
    25   265   267    1
    26     4     5    1
    27    39    37    1
    28    38    37    1
    29   294   292    1
    30   347   346    1
    31   463   464    1
    32    25    26    1
    33   297   295    1
    34   346   348    1
    35   349   351    1
    36   363   361    1
    37   422   421    1
    38   461   460    1
    39   614   613    1
    40   295   296    1
    41   458   457    1
    42   292   293    1
    43   212   211    1
    44   613   615    1
    45   622   623    1
    46   622   624    1
    47   421   423    1
    48   626   625    1
    49   460   462    1
    50    11    10    1
    51   609   607    1
    52   459   457    1
    53   325   327    1
    54   325   326    1
    55   253   254    1
    56   253   255    1
    57   195   193    1
    58   625   627    1
    59   452   451    1
    60   435   433    1
    61   135   133    1
    62    10    12    1
    63   567   565    1
    64   441   439    1
    65   618   616    1
    66   211   213    1
    67   433   434    1
    68   453   451    1
    69   566   565    1
    70   312   310    1
    71   357   355    1
    72   607   608    1
    73   355   356    1
    74   420   418    1
    75   418   419    1
    76   633   631    1
    77   440   439    1
    78   193   194    1
    79   332   331    1
    80   133   134    1
    81    99    97    1
    82    98    97    1
    83   307   309    1
    84   307   308    1
    85   310   311    1
    86   503   502    1
    87   616   617    1
    88   358   360    1
    89   358   359    1
    90   631   632    1
    91   514   516    1
    92   514   515    1
    93   314   313    1
    94   299   298    1
    95   491   490    1
    96   528   526    1
    97   331   333    1
    98   313   315    1
    99   542   541    1
   100    40    41    1
   101    40    42    1
   102   286   288    1
   103   286   287    1
   104   251   250    1
   105    92    91    1
   106   443   442    1
   107   502   504    1
   108   543   541    1
   109   486   484    1
   110   450   448    1
   111   526   527    1
   112   250   252    1
   113   490   492    1
   114   408   406    1
   115   126   124    1
   116   298   300    1
   117    68    67    1
   118   551   550    1
   119   579   577    1
   120   484   485    1
   121    91    93    1
   122   168   166    1
   123   550   552    1
   124   214   216    1
   125   214   215    1
   126    61    63    1
   127    61    62    1
   128   237   235    1
   129   536   535    1
   130   512   511    1
   131   235   236    1
   132   442   444    1
   133   124   125    1
   134   448   449    1
   135   513   511    1
   136   406   407    1
   137    67    69    1
   138   182   181    1
   139   535   537    1
   140   132   130    1
   141   181   183    1
   142    43    45    1
   143    43    44    1
   144   166   167    1
   145   380   379    1
   146   577   578    1
   147   144   142    1
   148   290   289    1
   149   104   103    1
   150   131   130    1
   151   575   574    1
   152   335   334    1
   153   563   562    1
   154   562   564    1
   155   429   427    1
   156   142   143    1
   157   284   283    1
   158    87    85    1
   159   105   103    1
   160   283   285    1
   161    85    86    1
   162   334   336    1
   163   379   381    1
   164   339   337    1
   165   561   559    1
   166   377   376    1
   167   604   606    1
   168   604   605    1
   169   289   291    1
   170   468   466    1
   171   559   560    1
   172   176   175    1
   173   574   576    1
   174   425   424    1
   175   427   428    1
   176   405   403    1
   177   303   301    1
   178   338   337    1
   179   344   343    1
   180   588   586    1
   181   127   129    1
   182   127   128    1
   183   403   404    1
   184    54    52    1
   185   426   424    1
   186   378   376    1
   187    52    53    1
   188   587   586    1
   189   556   558    1
   190   556   557    1
   191   342   340    1
   192   466   467    1
   193   204   202    1
   194   341   340    1
   195   301   302    1
   196   384   382    1
   197   532   534    1
   198   532   533    1
   199   175   177    1
   200   202   203    1
   201    30    28    1
   202   343   345    1
   203   436   438    1
   204   436   437    1
   205   402   400    1
   206   208   209    1
   207   208   210    1
   208   150   148    1
   209    36    34    1
   210   365   364    1
   211   149   148    1
   212   106   107    1
   213   106   108    1
   214    34    35    1
   215   382   383    1
   216   400   401    1
   217   390   388    1
   218   501   499    1
   219   510   508    1
   220    28    29    1
   221   599   598    1
   222   540   538    1
   223   248   247    1
   224   598   600    1
   225   582   580    1
   226   478   479    1
   227   478   480    1
   228   364   366    1
   229   539   538    1
   230   593   592    1
   231   247   249    1
   232   580   581    1
   233     3     1    1
   234   207   205    1
   235   499   500    1
   236   226   228    1
   237   226   227    1
   238   388   389    1
   239   508   509    1
   240   470   469    1
   241   488   487    1
   242   594   592    1
   243   186   184    1
   244    65    64    1
   245   185   184    1
   246   277   279    1
   247   277   278    1
   248   273   271    1
   249   635   634    1
   250     1     2    1
   251    76    77    1
   252    76    78    1
   253   205   206    1
   254   547   548    1
   255   547   549    1
   256    64    66    1
   257   385   386    1
   258   385   387    1
   259    23    22    1
   260   469   471    1
   261   146   145    1
   262   230   229    1
   263   180   178    1
   264   487   489    1
   265   147   145    1
   266   634   636    1
   267   410   409    1
   268   229   231    1
   269   271   272    1
   270   100   101    1
   271   100   102    1
   272   445   446    1
   273   445   447    1
   274   171   169    1
   275   170   169    1
   276   409   411    1
   277   116   115    1
   278   456   454    1
   279   123   121    1
   280   506   505    1
   281    22    24    1
   282   178   179    1
   283   281   280    1
   284   189   187    1
   285   530   529    1
   286   545   544    1
   287   115   117    1
   288   352   353    1
   289   352   354    1
   290   431   430    1
   291   647   646    1
   292   529   531    1
   293   505   507    1
   294   644   643    1
   295   546   544    1
   296   282   280    1
   297   270   268    1
   298   643   645    1
   299   628   629    1
   300   628   630    1
   301   121   122    1
   302   454   455    1
   303   432   430    1
   304   187   188    1
   305    75    73    1
   306   191   190    1
   307   646   648    1
   308   306   304    1
   309    73    74    1
   310   304   305    1
   311   370   372    1
   312   370   371    1
   313   268   269    1
   314    83    82    1
   315   322   324    1
   316   322   323    1
   317    51    49    1
   318   233   232    1
   319   330   328    1
   320   476   475    1
   321   138   136    1
   322   524   523    1
   323   158   157    1
   324   190   192    1
   325   136   137    1
   326    82    84    1
   327   569   568    1
   328   318   316    1
   329   317   316    1
   330   525   523    1
   331   568   570    1
   332   473   472    1
   333   225   223    1
   334   611   610    1
   335   234   232    1
   336   328   329    1
   337   475   477    1
   338   157   159    1
   339   200   199    1
   340   199   201    1
   341    49    50    1
   342   113   112    1
   343   153   151    1
   344    95    94    1
   345   152   151    1
   346    94    96    1
   347   223   224    1
   348   610   612    1
   349   472   474    1
   350   245   244    1
   351    81    79    1
   352    56    55    1
   353    55    57    1
   354    70    71    1
   355    70    72    1
   356   112   114    1
   357   257   256    1
   358     9     7    1
   359   258   256    1
   360   244   246    1
   361   620   619    1
   362   603   601    1
   363   573   571    1
   364    79    80    1
   365   483   481    1
   366   367   368    1
   367   367   369    1
   368    15    13    1
   369   572   571    1
   370    90    88    1
   371     7     8    1
   372   243   241    1
   373   601   602    1
   374   519   517    1
   375   274   275    1
   376   274   276    1
   377    31    33    1
   378    31    32    1
   379   481   482    1
   380   260   259    1
   381   497   496    1
   382    47    46    1
   383   619   621    1
   384   637   638    1
   385   637   639    1
   386    20    19    1
   387   517   518    1
   388    13    14    1
   389    19    21    1
   390   496   498    1
   391    88    89    1
   392   172   174    1
   393   172   173    1
   394   239   238    1
   395    46    48    1
   396   241   242    1
   397   259   261    1
   398   264   262    1
   399   596   595    1
   400   139   140    1
   401   139   141    1
   402   320   319    1
   403   238   240    1
   404   392   391    1
   405   164   163    1
   406   221   220    1
   407   393   391    1
   408   642   640    1
   409   198   196    1
   410   162   160    1
   411   595   597    1
   412   160   161    1
   413   219   217    1
   414    16    17    1
   415    16    18    1
   416   156   154    1
   417   263   262    1
   418   589   590    1
   419   589   591    1
   420   319   321    1
   421   417   415    1
   422   163   165    1
   423   218   217    1
   424   640   641    1
   425   154   155    1
   426    58    59    1
   427    58    60    1
   428   414   412    1
   429   220   222    1
   430   413   412    1
   431   196   197    1
   432   415   416    1
