@<TRIPOS>MOLECULE
generated by VMD
 1800    2300    0    0    0
SMALL
NO_CHARGES
****
Energy = 0

@<TRIPOS>ATOM
      1  O         1.3472    0.7778    7.1500   O    1     SUB         0.000000
      2  Si        1.3472    0.7778    0.0000  Si    1     SUB         0.000000
      3  O         1.3472    2.3335    0.5500   O    1     SUB         0.000000
      4  Si        1.3472    3.8891    1.1000  Si    1     SUB         0.000000
      5  O         2.6944    0.0000    0.5500   O    1     SUB         0.000000
      6  O         0.0000    0.0000    0.5500   O    1     SUB         0.000000
      7  O         1.3472    3.8891    2.7500   O    1     SUB         0.000000
      8  Si        1.3472    3.8891    4.4000  Si    1     SUB         0.000000
      9  O         1.3472    2.3335    4.9500   O    1     SUB         0.000000
     10  Si        1.3472    0.7778    5.5000  Si    1     SUB         0.000000
     11  O         2.6944    0.0000    4.9500   O    1     SUB         0.000000
     12  O         0.0000    0.0000    4.9500   O    1     SUB         0.000000
     13  Si        1.3472    0.7778    8.8000  Si    1     SUB         0.000000
     14  O         2.6944    0.0000    9.3500   O    1     SUB         0.000000
     15  O         0.0000    0.0000    9.3500   O    1     SUB         0.000000
     16  O         1.3472    2.3335    9.3500   O    1     SUB         0.000000
     17  Si        1.3472    3.8891    9.9000  Si    1     SUB         0.000000
     18  O         1.3472    3.8891   11.5500   O    1     SUB         0.000000
     19  O         4.0417    5.4447    7.1500   O    1     SUB         0.000000
     20  Si        4.0417    5.4447    0.0000  Si    1     SUB         0.000000
     21  O         4.0417    7.0003    0.5500   O    1     SUB         0.000000
     22  Si        4.0417    8.5560    1.1000  Si    1     SUB         0.000000
     23  O         5.3889    4.6669    0.5500   O    1     SUB         0.000000
     24  O         2.6944    4.6669    0.5500   O    1     SUB         0.000000
     25  O         4.0417    8.5560    2.7500   O    1     SUB         0.000000
     26  Si        4.0417    8.5560    4.4000  Si    1     SUB         0.000000
     27  O         4.0417    7.0003    4.9500   O    1     SUB         0.000000
     28  Si        4.0417    5.4447    5.5000  Si    1     SUB         0.000000
     29  O         5.3889    4.6669    4.9500   O    1     SUB         0.000000
     30  O         2.6944    4.6669    4.9500   O    1     SUB         0.000000
     31  Si        4.0417    5.4447    8.8000  Si    1     SUB         0.000000
     32  O         5.3889    4.6669    9.3500   O    1     SUB         0.000000
     33  O         2.6944    4.6669    9.3500   O    1     SUB         0.000000
     34  O         4.0417    7.0003    9.3500   O    1     SUB         0.000000
     35  Si        4.0417    8.5560    9.9000  Si    1     SUB         0.000000
     36  O         4.0417    8.5560   11.5500   O    1     SUB         0.000000
     37  O         6.7361    0.7778    7.1500   O    1     SUB         0.000000
     38  Si        6.7361    0.7778    0.0000  Si    1     SUB         0.000000
     39  O         6.7361    2.3335    0.5500   O    1     SUB         0.000000
     40  Si        6.7361    3.8891    1.1000  Si    1     SUB         0.000000
     41  O         8.0833    0.0000    0.5500   O    1     SUB         0.000000
     42  O         5.3889    0.0000    0.5500   O    1     SUB         0.000000
     43  O         6.7361    3.8891    2.7500   O    1     SUB         0.000000
     44  Si        6.7361    3.8891    4.4000  Si    1     SUB         0.000000
     45  O         6.7361    2.3335    4.9500   O    1     SUB         0.000000
     46  Si        6.7361    0.7778    5.5000  Si    1     SUB         0.000000
     47  O         8.0833    0.0000    4.9500   O    1     SUB         0.000000
     48  O         5.3889    0.0000    4.9500   O    1     SUB         0.000000
     49  Si        6.7361    0.7778    8.8000  Si    1     SUB         0.000000
     50  O         8.0833    0.0000    9.3500   O    1     SUB         0.000000
     51  O         5.3889    0.0000    9.3500   O    1     SUB         0.000000
     52  O         6.7361    2.3335    9.3500   O    1     SUB         0.000000
     53  Si        6.7361    3.8891    9.9000  Si    1     SUB         0.000000
     54  O         6.7361    3.8891   11.5500   O    1     SUB         0.000000
     55  O         9.4305    5.4447    7.1500   O    1     SUB         0.000000
     56  Si        9.4305    5.4447    0.0000  Si    1     SUB         0.000000
     57  O         9.4305    7.0003    0.5500   O    1     SUB         0.000000
     58  Si        9.4305    8.5560    1.1000  Si    1     SUB         0.000000
     59  O        10.7778    4.6669    0.5500   O    1     SUB         0.000000
     60  O         8.0833    4.6669    0.5500   O    1     SUB         0.000000
     61  O         9.4305    8.5560    2.7500   O    1     SUB         0.000000
     62  Si        9.4305    8.5560    4.4000  Si    1     SUB         0.000000
     63  O         9.4305    7.0003    4.9500   O    1     SUB         0.000000
     64  Si        9.4305    5.4447    5.5000  Si    1     SUB         0.000000
     65  O        10.7778    4.6669    4.9500   O    1     SUB         0.000000
     66  O         8.0833    4.6669    4.9500   O    1     SUB         0.000000
     67  Si        9.4305    5.4447    8.8000  Si    1     SUB         0.000000
     68  O        10.7778    4.6669    9.3500   O    1     SUB         0.000000
     69  O         8.0833    4.6669    9.3500   O    1     SUB         0.000000
     70  O         9.4305    7.0003    9.3500   O    1     SUB         0.000000
     71  Si        9.4305    8.5560    9.9000  Si    1     SUB         0.000000
     72  O         9.4305    8.5560   11.5500   O    1     SUB         0.000000
     73  O        12.1250    0.7778    7.1500   O    1     SUB         0.000000
     74  Si       12.1250    0.7778    0.0000  Si    1     SUB         0.000000
     75  O        12.1250    2.3335    0.5500   O    1     SUB         0.000000
     76  Si       12.1250    3.8891    1.1000  Si    1     SUB         0.000000
     77  O        13.4722    0.0000    0.5500   O    1     SUB         0.000000
     78  O        10.7778    0.0000    0.5500   O    1     SUB         0.000000
     79  O        12.1250    3.8891    2.7500   O    1     SUB         0.000000
     80  Si       12.1250    3.8891    4.4000  Si    1     SUB         0.000000
     81  O        12.1250    2.3335    4.9500   O    1     SUB         0.000000
     82  Si       12.1250    0.7778    5.5000  Si    1     SUB         0.000000
     83  O        13.4722    0.0000    4.9500   O    1     SUB         0.000000
     84  O        10.7778    0.0000    4.9500   O    1     SUB         0.000000
     85  Si       12.1250    0.7778    8.8000  Si    1     SUB         0.000000
     86  O        13.4722    0.0000    9.3500   O    1     SUB         0.000000
     87  O        10.7778    0.0000    9.3500   O    1     SUB         0.000000
     88  O        12.1250    2.3335    9.3500   O    1     SUB         0.000000
     89  Si       12.1250    3.8891    9.9000  Si    1     SUB         0.000000
     90  O        12.1250    3.8891   11.5500   O    1     SUB         0.000000
     91  O        14.8194    5.4447    7.1500   O    1     SUB         0.000000
     92  Si       14.8194    5.4447    0.0000  Si    1     SUB         0.000000
     93  O        14.8194    7.0003    0.5500   O    1     SUB         0.000000
     94  Si       14.8194    8.5560    1.1000  Si    1     SUB         0.000000
     95  O        16.1666    4.6669    0.5500   O    1     SUB         0.000000
     96  O        13.4722    4.6669    0.5500   O    1     SUB         0.000000
     97  O        14.8194    8.5560    2.7500   O    1     SUB         0.000000
     98  Si       14.8194    8.5560    4.4000  Si    1     SUB         0.000000
     99  O        14.8194    7.0003    4.9500   O    1     SUB         0.000000
    100  Si       14.8194    5.4447    5.5000  Si    1     SUB         0.000000
    101  O        16.1666    4.6669    4.9500   O    1     SUB         0.000000
    102  O        13.4722    4.6669    4.9500   O    1     SUB         0.000000
    103  Si       14.8194    5.4447    8.8000  Si    1     SUB         0.000000
    104  O        16.1666    4.6669    9.3500   O    1     SUB         0.000000
    105  O        13.4722    4.6669    9.3500   O    1     SUB         0.000000
    106  O        14.8194    7.0003    9.3500   O    1     SUB         0.000000
    107  Si       14.8194    8.5560    9.9000  Si    1     SUB         0.000000
    108  O        14.8194    8.5560   11.5500   O    1     SUB         0.000000
    109  O        17.5139    0.7778    7.1500   O    1     SUB         0.000000
    110  Si       17.5139    0.7778    0.0000  Si    1     SUB         0.000000
    111  O        17.5139    2.3335    0.5500   O    1     SUB         0.000000
    112  Si       17.5139    3.8891    1.1000  Si    1     SUB         0.000000
    113  O        18.8611    0.0000    0.5500   O    1     SUB         0.000000
    114  O        16.1666    0.0000    0.5500   O    1     SUB         0.000000
    115  O        17.5139    3.8891    2.7500   O    1     SUB         0.000000
    116  Si       17.5139    3.8891    4.4000  Si    1     SUB         0.000000
    117  O        17.5139    2.3335    4.9500   O    1     SUB         0.000000
    118  Si       17.5139    0.7778    5.5000  Si    1     SUB         0.000000
    119  O        18.8611    0.0000    4.9500   O    1     SUB         0.000000
    120  O        16.1666    0.0000    4.9500   O    1     SUB         0.000000
    121  Si       17.5139    0.7778    8.8000  Si    1     SUB         0.000000
    122  O        18.8611    0.0000    9.3500   O    1     SUB         0.000000
    123  O        16.1666    0.0000    9.3500   O    1     SUB         0.000000
    124  O        17.5139    2.3335    9.3500   O    1     SUB         0.000000
    125  Si       17.5139    3.8891    9.9000  Si    1     SUB         0.000000
    126  O        17.5139    3.8891   11.5500   O    1     SUB         0.000000
    127  O        20.2083    5.4447    7.1500   O    1     SUB         0.000000
    128  Si       20.2083    5.4447    0.0000  Si    1     SUB         0.000000
    129  O        20.2083    7.0003    0.5500   O    1     SUB         0.000000
    130  Si       20.2083    8.5560    1.1000  Si    1     SUB         0.000000
    131  O        21.5555    4.6669    0.5500   O    1     SUB         0.000000
    132  O        18.8611    4.6669    0.5500   O    1     SUB         0.000000
    133  O        20.2083    8.5560    2.7500   O    1     SUB         0.000000
    134  Si       20.2083    8.5560    4.4000  Si    1     SUB         0.000000
    135  O        20.2083    7.0003    4.9500   O    1     SUB         0.000000
    136  Si       20.2083    5.4447    5.5000  Si    1     SUB         0.000000
    137  O        21.5555    4.6669    4.9500   O    1     SUB         0.000000
    138  O        18.8611    4.6669    4.9500   O    1     SUB         0.000000
    139  Si       20.2083    5.4447    8.8000  Si    1     SUB         0.000000
    140  O        21.5555    4.6669    9.3500   O    1     SUB         0.000000
    141  O        18.8611    4.6669    9.3500   O    1     SUB         0.000000
    142  O        20.2083    7.0003    9.3500   O    1     SUB         0.000000
    143  Si       20.2083    8.5560    9.9000  Si    1     SUB         0.000000
    144  O        20.2083    8.5560   11.5500   O    1     SUB         0.000000
    145  O        22.9027    0.7778    7.1500   O    1     SUB         0.000000
    146  Si       22.9027    0.7778    0.0000  Si    1     SUB         0.000000
    147  O        22.9027    2.3335    0.5500   O    1     SUB         0.000000
    148  Si       22.9027    3.8891    1.1000  Si    1     SUB         0.000000
    149  O        24.2500    0.0000    0.5500   O    1     SUB         0.000000
    150  O        21.5555    0.0000    0.5500   O    1     SUB         0.000000
    151  O        22.9027    3.8891    2.7500   O    1     SUB         0.000000
    152  Si       22.9027    3.8891    4.4000  Si    1     SUB         0.000000
    153  O        22.9027    2.3335    4.9500   O    1     SUB         0.000000
    154  Si       22.9027    0.7778    5.5000  Si    1     SUB         0.000000
    155  O        24.2500    0.0000    4.9500   O    1     SUB         0.000000
    156  O        21.5555    0.0000    4.9500   O    1     SUB         0.000000
    157  Si       22.9027    0.7778    8.8000  Si    1     SUB         0.000000
    158  O        24.2500    0.0000    9.3500   O    1     SUB         0.000000
    159  O        21.5555    0.0000    9.3500   O    1     SUB         0.000000
    160  O        22.9027    2.3335    9.3500   O    1     SUB         0.000000
    161  Si       22.9027    3.8891    9.9000  Si    1     SUB         0.000000
    162  O        22.9027    3.8891   11.5500   O    1     SUB         0.000000
    163  O        25.5972    5.4447    7.1500   O    1     SUB         0.000000
    164  Si       25.5972    5.4447    0.0000  Si    1     SUB         0.000000
    165  O        25.5972    7.0003    0.5500   O    1     SUB         0.000000
    166  Si       25.5972    8.5560    1.1000  Si    1     SUB         0.000000
    167  O        26.9444    4.6669    0.5500   O    1     SUB         0.000000
    168  O        24.2500    4.6669    0.5500   O    1     SUB         0.000000
    169  O        25.5972    8.5560    2.7500   O    1     SUB         0.000000
    170  Si       25.5972    8.5560    4.4000  Si    1     SUB         0.000000
    171  O        25.5972    7.0003    4.9500   O    1     SUB         0.000000
    172  Si       25.5972    5.4447    5.5000  Si    1     SUB         0.000000
    173  O        26.9444    4.6669    4.9500   O    1     SUB         0.000000
    174  O        24.2500    4.6669    4.9500   O    1     SUB         0.000000
    175  Si       25.5972    5.4447    8.8000  Si    1     SUB         0.000000
    176  O        26.9444    4.6669    9.3500   O    1     SUB         0.000000
    177  O        24.2500    4.6669    9.3500   O    1     SUB         0.000000
    178  O        25.5972    7.0003    9.3500   O    1     SUB         0.000000
    179  Si       25.5972    8.5560    9.9000  Si    1     SUB         0.000000
    180  O        25.5972    8.5560   11.5500   O    1     SUB         0.000000
    181  O        28.2916    0.7778    7.1500   O    1     SUB         0.000000
    182  Si       28.2916    0.7778    0.0000  Si    1     SUB         0.000000
    183  O        28.2916    2.3335    0.5500   O    1     SUB         0.000000
    184  Si       28.2916    3.8891    1.1000  Si    1     SUB         0.000000
    185  O        29.6388    0.0000    0.5500   O    1     SUB         0.000000
    186  O        26.9444    0.0000    0.5500   O    1     SUB         0.000000
    187  O        28.2916    3.8891    2.7500   O    1     SUB         0.000000
    188  Si       28.2916    3.8891    4.4000  Si    1     SUB         0.000000
    189  O        28.2916    2.3335    4.9500   O    1     SUB         0.000000
    190  Si       28.2916    0.7778    5.5000  Si    1     SUB         0.000000
    191  O        29.6388    0.0000    4.9500   O    1     SUB         0.000000
    192  O        26.9444    0.0000    4.9500   O    1     SUB         0.000000
    193  Si       28.2916    0.7778    8.8000  Si    1     SUB         0.000000
    194  O        29.6388    0.0000    9.3500   O    1     SUB         0.000000
    195  O        26.9444    0.0000    9.3500   O    1     SUB         0.000000
    196  O        28.2916    2.3335    9.3500   O    1     SUB         0.000000
    197  Si       28.2916    3.8891    9.9000  Si    1     SUB         0.000000
    198  O        28.2916    3.8891   11.5500   O    1     SUB         0.000000
    199  O        30.9861    5.4447    7.1500   O    1     SUB         0.000000
    200  Si       30.9861    5.4447    0.0000  Si    1     SUB         0.000000
    201  O        30.9861    7.0003    0.5500   O    1     SUB         0.000000
    202  Si       30.9861    8.5560    1.1000  Si    1     SUB         0.000000
    203  O        32.3333    4.6669    0.5500   O    1     SUB         0.000000
    204  O        29.6388    4.6669    0.5500   O    1     SUB         0.000000
    205  O        30.9861    8.5560    2.7500   O    1     SUB         0.000000
    206  Si       30.9861    8.5560    4.4000  Si    1     SUB         0.000000
    207  O        30.9861    7.0003    4.9500   O    1     SUB         0.000000
    208  Si       30.9861    5.4447    5.5000  Si    1     SUB         0.000000
    209  O        32.3333    4.6669    4.9500   O    1     SUB         0.000000
    210  O        29.6388    4.6669    4.9500   O    1     SUB         0.000000
    211  Si       30.9861    5.4447    8.8000  Si    1     SUB         0.000000
    212  O        32.3333    4.6669    9.3500   O    1     SUB         0.000000
    213  O        29.6388    4.6669    9.3500   O    1     SUB         0.000000
    214  O        30.9861    7.0003    9.3500   O    1     SUB         0.000000
    215  Si       30.9861    8.5560    9.9000  Si    1     SUB         0.000000
    216  O        30.9861    8.5560   11.5500   O    1     SUB         0.000000
    217  O        33.6805    0.7778    7.1500   O    1     SUB         0.000000
    218  Si       33.6805    0.7778    0.0000  Si    1     SUB         0.000000
    219  O        33.6805    2.3335    0.5500   O    1     SUB         0.000000
    220  Si       33.6805    3.8891    1.1000  Si    1     SUB         0.000000
    221  O        35.0277    0.0000    0.5500   O    1     SUB         0.000000
    222  O        32.3333    0.0000    0.5500   O    1     SUB         0.000000
    223  O        33.6805    3.8891    2.7500   O    1     SUB         0.000000
    224  Si       33.6805    3.8891    4.4000  Si    1     SUB         0.000000
    225  O        33.6805    2.3335    4.9500   O    1     SUB         0.000000
    226  Si       33.6805    0.7778    5.5000  Si    1     SUB         0.000000
    227  O        35.0277    0.0000    4.9500   O    1     SUB         0.000000
    228  O        32.3333    0.0000    4.9500   O    1     SUB         0.000000
    229  Si       33.6805    0.7778    8.8000  Si    1     SUB         0.000000
    230  O        35.0277    0.0000    9.3500   O    1     SUB         0.000000
    231  O        32.3333    0.0000    9.3500   O    1     SUB         0.000000
    232  O        33.6805    2.3335    9.3500   O    1     SUB         0.000000
    233  Si       33.6805    3.8891    9.9000  Si    1     SUB         0.000000
    234  O        33.6805    3.8891   11.5500   O    1     SUB         0.000000
    235  O        36.3749    5.4447    7.1500   O    1     SUB         0.000000
    236  Si       36.3749    5.4447    0.0000  Si    1     SUB         0.000000
    237  O        36.3749    7.0003    0.5500   O    1     SUB         0.000000
    238  Si       36.3749    8.5560    1.1000  Si    1     SUB         0.000000
    239  O        37.7222    4.6669    0.5500   O    1     SUB         0.000000
    240  O        35.0277    4.6669    0.5500   O    1     SUB         0.000000
    241  O        36.3749    8.5560    2.7500   O    1     SUB         0.000000
    242  Si       36.3749    8.5560    4.4000  Si    1     SUB         0.000000
    243  O        36.3749    7.0003    4.9500   O    1     SUB         0.000000
    244  Si       36.3749    5.4447    5.5000  Si    1     SUB         0.000000
    245  O        37.7222    4.6669    4.9500   O    1     SUB         0.000000
    246  O        35.0277    4.6669    4.9500   O    1     SUB         0.000000
    247  Si       36.3749    5.4447    8.8000  Si    1     SUB         0.000000
    248  O        37.7222    4.6669    9.3500   O    1     SUB         0.000000
    249  O        35.0277    4.6669    9.3500   O    1     SUB         0.000000
    250  O        36.3749    7.0003    9.3500   O    1     SUB         0.000000
    251  Si       36.3749    8.5560    9.9000  Si    1     SUB         0.000000
    252  O        36.3749    8.5560   11.5500   O    1     SUB         0.000000
    253  O        39.0694    0.7778    7.1500   O    1     SUB         0.000000
    254  Si       39.0694    0.7778    0.0000  Si    1     SUB         0.000000
    255  O        39.0694    2.3335    0.5500   O    1     SUB         0.000000
    256  Si       39.0694    3.8891    1.1000  Si    1     SUB         0.000000
    257  O        40.4166    0.0000    0.5500   O    1     SUB         0.000000
    258  O        37.7222    0.0000    0.5500   O    1     SUB         0.000000
    259  O        39.0694    3.8891    2.7500   O    1     SUB         0.000000
    260  Si       39.0694    3.8891    4.4000  Si    1     SUB         0.000000
    261  O        39.0694    2.3335    4.9500   O    1     SUB         0.000000
    262  Si       39.0694    0.7778    5.5000  Si    1     SUB         0.000000
    263  O        40.4166    0.0000    4.9500   O    1     SUB         0.000000
    264  O        37.7222    0.0000    4.9500   O    1     SUB         0.000000
    265  Si       39.0694    0.7778    8.8000  Si    1     SUB         0.000000
    266  O        40.4166    0.0000    9.3500   O    1     SUB         0.000000
    267  O        37.7222    0.0000    9.3500   O    1     SUB         0.000000
    268  O        39.0694    2.3335    9.3500   O    1     SUB         0.000000
    269  Si       39.0694    3.8891    9.9000  Si    1     SUB         0.000000
    270  O        39.0694    3.8891   11.5500   O    1     SUB         0.000000
    271  O        41.7638    5.4447    7.1500   O    1     SUB         0.000000
    272  Si       41.7638    5.4447    0.0000  Si    1     SUB         0.000000
    273  O        41.7638    7.0003    0.5500   O    1     SUB         0.000000
    274  Si       41.7638    8.5560    1.1000  Si    1     SUB         0.000000
    275  O        43.1110    4.6669    0.5500   O    1     SUB         0.000000
    276  O        40.4166    4.6669    0.5500   O    1     SUB         0.000000
    277  O        41.7638    8.5560    2.7500   O    1     SUB         0.000000
    278  Si       41.7638    8.5560    4.4000  Si    1     SUB         0.000000
    279  O        41.7638    7.0003    4.9500   O    1     SUB         0.000000
    280  Si       41.7638    5.4447    5.5000  Si    1     SUB         0.000000
    281  O        43.1110    4.6669    4.9500   O    1     SUB         0.000000
    282  O        40.4166    4.6669    4.9500   O    1     SUB         0.000000
    283  Si       41.7638    5.4447    8.8000  Si    1     SUB         0.000000
    284  O        43.1110    4.6669    9.3500   O    1     SUB         0.000000
    285  O        40.4166    4.6669    9.3500   O    1     SUB         0.000000
    286  O        41.7638    7.0003    9.3500   O    1     SUB         0.000000
    287  Si       41.7638    8.5560    9.9000  Si    1     SUB         0.000000
    288  O        41.7638    8.5560   11.5500   O    1     SUB         0.000000
    289  O        44.4583    0.7778    7.1500   O    1     SUB         0.000000
    290  Si       44.4583    0.7778    0.0000  Si    1     SUB         0.000000
    291  O        44.4583    2.3335    0.5500   O    1     SUB         0.000000
    292  Si       44.4583    3.8891    1.1000  Si    1     SUB         0.000000
    293  O        45.8055    0.0000    0.5500   O    1     SUB         0.000000
    294  O        43.1110    0.0000    0.5500   O    1     SUB         0.000000
    295  O        44.4583    3.8891    2.7500   O    1     SUB         0.000000
    296  Si       44.4583    3.8891    4.4000  Si    1     SUB         0.000000
    297  O        44.4583    2.3335    4.9500   O    1     SUB         0.000000
    298  Si       44.4583    0.7778    5.5000  Si    1     SUB         0.000000
    299  O        45.8055    0.0000    4.9500   O    1     SUB         0.000000
    300  O        43.1110    0.0000    4.9500   O    1     SUB         0.000000
    301  Si       44.4583    0.7778    8.8000  Si    1     SUB         0.000000
    302  O        45.8055    0.0000    9.3500   O    1     SUB         0.000000
    303  O        43.1110    0.0000    9.3500   O    1     SUB         0.000000
    304  O        44.4583    2.3335    9.3500   O    1     SUB         0.000000
    305  Si       44.4583    3.8891    9.9000  Si    1     SUB         0.000000
    306  O        44.4583    3.8891   11.5500   O    1     SUB         0.000000
    307  O        47.1527    5.4447    7.1500   O    1     SUB         0.000000
    308  Si       47.1527    5.4447    0.0000  Si    1     SUB         0.000000
    309  O        47.1527    7.0003    0.5500   O    1     SUB         0.000000
    310  Si       47.1527    8.5560    1.1000  Si    1     SUB         0.000000
    311  O        48.4999    4.6669    0.5500   O    1     SUB         0.000000
    312  O        45.8055    4.6669    0.5500   O    1     SUB         0.000000
    313  O        47.1527    8.5560    2.7500   O    1     SUB         0.000000
    314  Si       47.1527    8.5560    4.4000  Si    1     SUB         0.000000
    315  O        47.1527    7.0003    4.9500   O    1     SUB         0.000000
    316  Si       47.1527    5.4447    5.5000  Si    1     SUB         0.000000
    317  O        48.4999    4.6669    4.9500   O    1     SUB         0.000000
    318  O        45.8055    4.6669    4.9500   O    1     SUB         0.000000
    319  Si       47.1527    5.4447    8.8000  Si    1     SUB         0.000000
    320  O        48.4999    4.6669    9.3500   O    1     SUB         0.000000
    321  O        45.8055    4.6669    9.3500   O    1     SUB         0.000000
    322  O        47.1527    7.0003    9.3500   O    1     SUB         0.000000
    323  Si       47.1527    8.5560    9.9000  Si    1     SUB         0.000000
    324  O        47.1527    8.5560   11.5500   O    1     SUB         0.000000
    325  O        49.8471    0.7778    7.1500   O    1     SUB         0.000000
    326  Si       49.8471    0.7778    0.0000  Si    1     SUB         0.000000
    327  O        49.8471    2.3335    0.5500   O    1     SUB         0.000000
    328  Si       49.8471    3.8891    1.1000  Si    1     SUB         0.000000
    329  O        51.1944    0.0000    0.5500   O    1     SUB         0.000000
    330  O        48.4999    0.0000    0.5500   O    1     SUB         0.000000
    331  O        49.8471    3.8891    2.7500   O    1     SUB         0.000000
    332  Si       49.8471    3.8891    4.4000  Si    1     SUB         0.000000
    333  O        49.8471    2.3335    4.9500   O    1     SUB         0.000000
    334  Si       49.8471    0.7778    5.5000  Si    1     SUB         0.000000
    335  O        51.1944    0.0000    4.9500   O    1     SUB         0.000000
    336  O        48.4999    0.0000    4.9500   O    1     SUB         0.000000
    337  Si       49.8471    0.7778    8.8000  Si    1     SUB         0.000000
    338  O        51.1944    0.0000    9.3500   O    1     SUB         0.000000
    339  O        48.4999    0.0000    9.3500   O    1     SUB         0.000000
    340  O        49.8471    2.3335    9.3500   O    1     SUB         0.000000
    341  Si       49.8471    3.8891    9.9000  Si    1     SUB         0.000000
    342  O        49.8471    3.8891   11.5500   O    1     SUB         0.000000
    343  O        52.5416    5.4447    7.1500   O    1     SUB         0.000000
    344  Si       52.5416    5.4447    0.0000  Si    1     SUB         0.000000
    345  O        52.5416    7.0003    0.5500   O    1     SUB         0.000000
    346  Si       52.5416    8.5560    1.1000  Si    1     SUB         0.000000
    347  O        53.8888    4.6669    0.5500   O    1     SUB         0.000000
    348  O        51.1944    4.6669    0.5500   O    1     SUB         0.000000
    349  O        52.5416    8.5560    2.7500   O    1     SUB         0.000000
    350  Si       52.5416    8.5560    4.4000  Si    1     SUB         0.000000
    351  O        52.5416    7.0003    4.9500   O    1     SUB         0.000000
    352  Si       52.5416    5.4447    5.5000  Si    1     SUB         0.000000
    353  O        53.8888    4.6669    4.9500   O    1     SUB         0.000000
    354  O        51.1944    4.6669    4.9500   O    1     SUB         0.000000
    355  Si       52.5416    5.4447    8.8000  Si    1     SUB         0.000000
    356  O        53.8888    4.6669    9.3500   O    1     SUB         0.000000
    357  O        51.1944    4.6669    9.3500   O    1     SUB         0.000000
    358  O        52.5416    7.0003    9.3500   O    1     SUB         0.000000
    359  Si       52.5416    8.5560    9.9000  Si    1     SUB         0.000000
    360  O        52.5416    8.5560   11.5500   O    1     SUB         0.000000
    361  O         1.3472   10.1116    7.1500   O    1     SUB         0.000000
    362  Si        1.3472   10.1116    0.0000  Si    1     SUB         0.000000
    363  O         1.3472   11.6672    0.5500   O    1     SUB         0.000000
    364  Si        1.3472   13.2229    1.1000  Si    1     SUB         0.000000
    365  O         2.6944    9.3338    0.5500   O    1     SUB         0.000000
    366  O         0.0000    9.3338    0.5500   O    1     SUB         0.000000
    367  O         1.3472   13.2229    2.7500   O    1     SUB         0.000000
    368  Si        1.3472   13.2229    4.4000  Si    1     SUB         0.000000
    369  O         1.3472   11.6672    4.9500   O    1     SUB         0.000000
    370  Si        1.3472   10.1116    5.5000  Si    1     SUB         0.000000
    371  O         2.6944    9.3338    4.9500   O    1     SUB         0.000000
    372  O         0.0000    9.3338    4.9500   O    1     SUB         0.000000
    373  Si        1.3472   10.1116    8.8000  Si    1     SUB         0.000000
    374  O         2.6944    9.3338    9.3500   O    1     SUB         0.000000
    375  O         0.0000    9.3338    9.3500   O    1     SUB         0.000000
    376  O         1.3472   11.6672    9.3500   O    1     SUB         0.000000
    377  Si        1.3472   13.2229    9.9000  Si    1     SUB         0.000000
    378  O         1.3472   13.2229   11.5500   O    1     SUB         0.000000
    379  O         4.0417   14.7785    7.1500   O    1     SUB         0.000000
    380  Si        4.0417   14.7785    0.0000  Si    1     SUB         0.000000
    381  O         4.0417   16.3341    0.5500   O    1     SUB         0.000000
    382  Si        4.0417   17.8898    1.1000  Si    1     SUB         0.000000
    383  O         5.3889   14.0007    0.5500   O    1     SUB         0.000000
    384  O         2.6944   14.0007    0.5500   O    1     SUB         0.000000
    385  O         4.0417   17.8898    2.7500   O    1     SUB         0.000000
    386  Si        4.0417   17.8898    4.4000  Si    1     SUB         0.000000
    387  O         4.0417   16.3341    4.9500   O    1     SUB         0.000000
    388  Si        4.0417   14.7785    5.5000  Si    1     SUB         0.000000
    389  O         5.3889   14.0007    4.9500   O    1     SUB         0.000000
    390  O         2.6944   14.0007    4.9500   O    1     SUB         0.000000
    391  Si        4.0417   14.7785    8.8000  Si    1     SUB         0.000000
    392  O         5.3889   14.0007    9.3500   O    1     SUB         0.000000
    393  O         2.6944   14.0007    9.3500   O    1     SUB         0.000000
    394  O         4.0417   16.3341    9.3500   O    1     SUB         0.000000
    395  Si        4.0417   17.8898    9.9000  Si    1     SUB         0.000000
    396  O         4.0417   17.8898   11.5500   O    1     SUB         0.000000
    397  O         6.7361   10.1116    7.1500   O    1     SUB         0.000000
    398  Si        6.7361   10.1116    0.0000  Si    1     SUB         0.000000
    399  O         6.7361   11.6672    0.5500   O    1     SUB         0.000000
    400  Si        6.7361   13.2229    1.1000  Si    1     SUB         0.000000
    401  O         8.0833    9.3338    0.5500   O    1     SUB         0.000000
    402  O         5.3889    9.3338    0.5500   O    1     SUB         0.000000
    403  O         6.7361   13.2229    2.7500   O    1     SUB         0.000000
    404  Si        6.7361   13.2229    4.4000  Si    1     SUB         0.000000
    405  O         6.7361   11.6672    4.9500   O    1     SUB         0.000000
    406  Si        6.7361   10.1116    5.5000  Si    1     SUB         0.000000
    407  O         8.0833    9.3338    4.9500   O    1     SUB         0.000000
    408  O         5.3889    9.3338    4.9500   O    1     SUB         0.000000
    409  Si        6.7361   10.1116    8.8000  Si    1     SUB         0.000000
    410  O         8.0833    9.3338    9.3500   O    1     SUB         0.000000
    411  O         5.3889    9.3338    9.3500   O    1     SUB         0.000000
    412  O         6.7361   11.6672    9.3500   O    1     SUB         0.000000
    413  Si        6.7361   13.2229    9.9000  Si    1     SUB         0.000000
    414  O         6.7361   13.2229   11.5500   O    1     SUB         0.000000
    415  O         9.4305   14.7785    7.1500   O    1     SUB         0.000000
    416  Si        9.4305   14.7785    0.0000  Si    1     SUB         0.000000
    417  O         9.4305   16.3341    0.5500   O    1     SUB         0.000000
    418  Si        9.4305   17.8898    1.1000  Si    1     SUB         0.000000
    419  O        10.7778   14.0007    0.5500   O    1     SUB         0.000000
    420  O         8.0833   14.0007    0.5500   O    1     SUB         0.000000
    421  O         9.4305   17.8898    2.7500   O    1     SUB         0.000000
    422  Si        9.4305   17.8898    4.4000  Si    1     SUB         0.000000
    423  O         9.4305   16.3341    4.9500   O    1     SUB         0.000000
    424  Si        9.4305   14.7785    5.5000  Si    1     SUB         0.000000
    425  O        10.7778   14.0007    4.9500   O    1     SUB         0.000000
    426  O         8.0833   14.0007    4.9500   O    1     SUB         0.000000
    427  Si        9.4305   14.7785    8.8000  Si    1     SUB         0.000000
    428  O        10.7778   14.0007    9.3500   O    1     SUB         0.000000
    429  O         8.0833   14.0007    9.3500   O    1     SUB         0.000000
    430  O         9.4305   16.3341    9.3500   O    1     SUB         0.000000
    431  Si        9.4305   17.8898    9.9000  Si    1     SUB         0.000000
    432  O         9.4305   17.8898   11.5500   O    1     SUB         0.000000
    433  O        12.1250   10.1116    7.1500   O    1     SUB         0.000000
    434  Si       12.1250   10.1116    0.0000  Si    1     SUB         0.000000
    435  O        12.1250   11.6672    0.5500   O    1     SUB         0.000000
    436  Si       12.1250   13.2229    1.1000  Si    1     SUB         0.000000
    437  O        13.4722    9.3338    0.5500   O    1     SUB         0.000000
    438  O        10.7778    9.3338    0.5500   O    1     SUB         0.000000
    439  O        12.1250   13.2229    2.7500   O    1     SUB         0.000000
    440  Si       12.1250   13.2229    4.4000  Si    1     SUB         0.000000
    441  O        12.1250   11.6672    4.9500   O    1     SUB         0.000000
    442  Si       12.1250   10.1116    5.5000  Si    1     SUB         0.000000
    443  O        13.4722    9.3338    4.9500   O    1     SUB         0.000000
    444  O        10.7778    9.3338    4.9500   O    1     SUB         0.000000
    445  Si       12.1250   10.1116    8.8000  Si    1     SUB         0.000000
    446  O        13.4722    9.3338    9.3500   O    1     SUB         0.000000
    447  O        10.7778    9.3338    9.3500   O    1     SUB         0.000000
    448  O        12.1250   11.6672    9.3500   O    1     SUB         0.000000
    449  Si       12.1250   13.2229    9.9000  Si    1     SUB         0.000000
    450  O        12.1250   13.2229   11.5500   O    1     SUB         0.000000
    451  O        14.8194   14.7785    7.1500   O    1     SUB         0.000000
    452  Si       14.8194   14.7785    0.0000  Si    1     SUB         0.000000
    453  O        14.8194   16.3341    0.5500   O    1     SUB         0.000000
    454  Si       14.8194   17.8898    1.1000  Si    1     SUB         0.000000
    455  O        16.1666   14.0007    0.5500   O    1     SUB         0.000000
    456  O        13.4722   14.0007    0.5500   O    1     SUB         0.000000
    457  O        14.8194   17.8898    2.7500   O    1     SUB         0.000000
    458  Si       14.8194   17.8898    4.4000  Si    1     SUB         0.000000
    459  O        14.8194   16.3341    4.9500   O    1     SUB         0.000000
    460  Si       14.8194   14.7785    5.5000  Si    1     SUB         0.000000
    461  O        16.1666   14.0007    4.9500   O    1     SUB         0.000000
    462  O        13.4722   14.0007    4.9500   O    1     SUB         0.000000
    463  Si       14.8194   14.7785    8.8000  Si    1     SUB         0.000000
    464  O        16.1666   14.0007    9.3500   O    1     SUB         0.000000
    465  O        13.4722   14.0007    9.3500   O    1     SUB         0.000000
    466  O        14.8194   16.3341    9.3500   O    1     SUB         0.000000
    467  Si       14.8194   17.8898    9.9000  Si    1     SUB         0.000000
    468  O        14.8194   17.8898   11.5500   O    1     SUB         0.000000
    469  O        17.5139   10.1116    7.1500   O    1     SUB         0.000000
    470  Si       17.5139   10.1116    0.0000  Si    1     SUB         0.000000
    471  O        17.5139   11.6672    0.5500   O    1     SUB         0.000000
    472  Si       17.5139   13.2229    1.1000  Si    1     SUB         0.000000
    473  O        18.8611    9.3338    0.5500   O    1     SUB         0.000000
    474  O        16.1666    9.3338    0.5500   O    1     SUB         0.000000
    475  O        17.5139   13.2229    2.7500   O    1     SUB         0.000000
    476  Si       17.5139   13.2229    4.4000  Si    1     SUB         0.000000
    477  O        17.5139   11.6672    4.9500   O    1     SUB         0.000000
    478  Si       17.5139   10.1116    5.5000  Si    1     SUB         0.000000
    479  O        18.8611    9.3338    4.9500   O    1     SUB         0.000000
    480  O        16.1666    9.3338    4.9500   O    1     SUB         0.000000
    481  Si       17.5139   10.1116    8.8000  Si    1     SUB         0.000000
    482  O        18.8611    9.3338    9.3500   O    1     SUB         0.000000
    483  O        16.1666    9.3338    9.3500   O    1     SUB         0.000000
    484  O        17.5139   11.6672    9.3500   O    1     SUB         0.000000
    485  Si       17.5139   13.2229    9.9000  Si    1     SUB         0.000000
    486  O        17.5139   13.2229   11.5500   O    1     SUB         0.000000
    487  O        20.2083   14.7785    7.1500   O    1     SUB         0.000000
    488  Si       20.2083   14.7785    0.0000  Si    1     SUB         0.000000
    489  O        20.2083   16.3341    0.5500   O    1     SUB         0.000000
    490  Si       20.2083   17.8898    1.1000  Si    1     SUB         0.000000
    491  O        21.5555   14.0007    0.5500   O    1     SUB         0.000000
    492  O        18.8611   14.0007    0.5500   O    1     SUB         0.000000
    493  O        20.2083   17.8898    2.7500   O    1     SUB         0.000000
    494  Si       20.2083   17.8898    4.4000  Si    1     SUB         0.000000
    495  O        20.2083   16.3341    4.9500   O    1     SUB         0.000000
    496  Si       20.2083   14.7785    5.5000  Si    1     SUB         0.000000
    497  O        21.5555   14.0007    4.9500   O    1     SUB         0.000000
    498  O        18.8611   14.0007    4.9500   O    1     SUB         0.000000
    499  Si       20.2083   14.7785    8.8000  Si    1     SUB         0.000000
    500  O        21.5555   14.0007    9.3500   O    1     SUB         0.000000
    501  O        18.8611   14.0007    9.3500   O    1     SUB         0.000000
    502  O        20.2083   16.3341    9.3500   O    1     SUB         0.000000
    503  Si       20.2083   17.8898    9.9000  Si    1     SUB         0.000000
    504  O        20.2083   17.8898   11.5500   O    1     SUB         0.000000
    505  O        22.9027   10.1116    7.1500   O    1     SUB         0.000000
    506  Si       22.9027   10.1116    0.0000  Si    1     SUB         0.000000
    507  O        22.9027   11.6672    0.5500   O    1     SUB         0.000000
    508  Si       22.9027   13.2229    1.1000  Si    1     SUB         0.000000
    509  O        24.2500    9.3338    0.5500   O    1     SUB         0.000000
    510  O        21.5555    9.3338    0.5500   O    1     SUB         0.000000
    511  O        22.9027   13.2229    2.7500   O    1     SUB         0.000000
    512  Si       22.9027   13.2229    4.4000  Si    1     SUB         0.000000
    513  O        22.9027   11.6672    4.9500   O    1     SUB         0.000000
    514  Si       22.9027   10.1116    5.5000  Si    1     SUB         0.000000
    515  O        24.2500    9.3338    4.9500   O    1     SUB         0.000000
    516  O        21.5555    9.3338    4.9500   O    1     SUB         0.000000
    517  Si       22.9027   10.1116    8.8000  Si    1     SUB         0.000000
    518  O        24.2500    9.3338    9.3500   O    1     SUB         0.000000
    519  O        21.5555    9.3338    9.3500   O    1     SUB         0.000000
    520  O        22.9027   11.6672    9.3500   O    1     SUB         0.000000
    521  Si       22.9027   13.2229    9.9000  Si    1     SUB         0.000000
    522  O        22.9027   13.2229   11.5500   O    1     SUB         0.000000
    523  O        25.5972   14.7785    7.1500   O    1     SUB         0.000000
    524  Si       25.5972   14.7785    0.0000  Si    1     SUB         0.000000
    525  O        25.5972   16.3341    0.5500   O    1     SUB         0.000000
    526  Si       25.5972   17.8898    1.1000  Si    1     SUB         0.000000
    527  O        26.9444   14.0007    0.5500   O    1     SUB         0.000000
    528  O        24.2500   14.0007    0.5500   O    1     SUB         0.000000
    529  O        25.5972   17.8898    2.7500   O    1     SUB         0.000000
    530  Si       25.5972   17.8898    4.4000  Si    1     SUB         0.000000
    531  O        25.5972   16.3341    4.9500   O    1     SUB         0.000000
    532  Si       25.5972   14.7785    5.5000  Si    1     SUB         0.000000
    533  O        26.9444   14.0007    4.9500   O    1     SUB         0.000000
    534  O        24.2500   14.0007    4.9500   O    1     SUB         0.000000
    535  Si       25.5972   14.7785    8.8000  Si    1     SUB         0.000000
    536  O        26.9444   14.0007    9.3500   O    1     SUB         0.000000
    537  O        24.2500   14.0007    9.3500   O    1     SUB         0.000000
    538  O        25.5972   16.3341    9.3500   O    1     SUB         0.000000
    539  Si       25.5972   17.8898    9.9000  Si    1     SUB         0.000000
    540  O        25.5972   17.8898   11.5500   O    1     SUB         0.000000
    541  O        28.2916   10.1116    7.1500   O    1     SUB         0.000000
    542  Si       28.2916   10.1116    0.0000  Si    1     SUB         0.000000
    543  O        28.2916   11.6672    0.5500   O    1     SUB         0.000000
    544  Si       28.2916   13.2229    1.1000  Si    1     SUB         0.000000
    545  O        29.6388    9.3338    0.5500   O    1     SUB         0.000000
    546  O        26.9444    9.3338    0.5500   O    1     SUB         0.000000
    547  O        28.2916   13.2229    2.7500   O    1     SUB         0.000000
    548  Si       28.2916   13.2229    4.4000  Si    1     SUB         0.000000
    549  O        28.2916   11.6672    4.9500   O    1     SUB         0.000000
    550  Si       28.2916   10.1116    5.5000  Si    1     SUB         0.000000
    551  O        29.6388    9.3338    4.9500   O    1     SUB         0.000000
    552  O        26.9444    9.3338    4.9500   O    1     SUB         0.000000
    553  Si       28.2916   10.1116    8.8000  Si    1     SUB         0.000000
    554  O        29.6388    9.3338    9.3500   O    1     SUB         0.000000
    555  O        26.9444    9.3338    9.3500   O    1     SUB         0.000000
    556  O        28.2916   11.6672    9.3500   O    1     SUB         0.000000
    557  Si       28.2916   13.2229    9.9000  Si    1     SUB         0.000000
    558  O        28.2916   13.2229   11.5500   O    1     SUB         0.000000
    559  O        30.9861   14.7785    7.1500   O    1     SUB         0.000000
    560  Si       30.9861   14.7785    0.0000  Si    1     SUB         0.000000
    561  O        30.9861   16.3341    0.5500   O    1     SUB         0.000000
    562  Si       30.9861   17.8898    1.1000  Si    1     SUB         0.000000
    563  O        32.3333   14.0007    0.5500   O    1     SUB         0.000000
    564  O        29.6388   14.0007    0.5500   O    1     SUB         0.000000
    565  O        30.9861   17.8898    2.7500   O    1     SUB         0.000000
    566  Si       30.9861   17.8898    4.4000  Si    1     SUB         0.000000
    567  O        30.9861   16.3341    4.9500   O    1     SUB         0.000000
    568  Si       30.9861   14.7785    5.5000  Si    1     SUB         0.000000
    569  O        32.3333   14.0007    4.9500   O    1     SUB         0.000000
    570  O        29.6388   14.0007    4.9500   O    1     SUB         0.000000
    571  Si       30.9861   14.7785    8.8000  Si    1     SUB         0.000000
    572  O        32.3333   14.0007    9.3500   O    1     SUB         0.000000
    573  O        29.6388   14.0007    9.3500   O    1     SUB         0.000000
    574  O        30.9861   16.3341    9.3500   O    1     SUB         0.000000
    575  Si       30.9861   17.8898    9.9000  Si    1     SUB         0.000000
    576  O        30.9861   17.8898   11.5500   O    1     SUB         0.000000
    577  O        33.6805   10.1116    7.1500   O    1     SUB         0.000000
    578  Si       33.6805   10.1116    0.0000  Si    1     SUB         0.000000
    579  O        33.6805   11.6672    0.5500   O    1     SUB         0.000000
    580  Si       33.6805   13.2229    1.1000  Si    1     SUB         0.000000
    581  O        35.0277    9.3338    0.5500   O    1     SUB         0.000000
    582  O        32.3333    9.3338    0.5500   O    1     SUB         0.000000
    583  O        33.6805   13.2229    2.7500   O    1     SUB         0.000000
    584  Si       33.6805   13.2229    4.4000  Si    1     SUB         0.000000
    585  O        33.6805   11.6672    4.9500   O    1     SUB         0.000000
    586  Si       33.6805   10.1116    5.5000  Si    1     SUB         0.000000
    587  O        35.0277    9.3338    4.9500   O    1     SUB         0.000000
    588  O        32.3333    9.3338    4.9500   O    1     SUB         0.000000
    589  Si       33.6805   10.1116    8.8000  Si    1     SUB         0.000000
    590  O        35.0277    9.3338    9.3500   O    1     SUB         0.000000
    591  O        32.3333    9.3338    9.3500   O    1     SUB         0.000000
    592  O        33.6805   11.6672    9.3500   O    1     SUB         0.000000
    593  Si       33.6805   13.2229    9.9000  Si    1     SUB         0.000000
    594  O        33.6805   13.2229   11.5500   O    1     SUB         0.000000
    595  O        36.3749   14.7785    7.1500   O    1     SUB         0.000000
    596  Si       36.3749   14.7785    0.0000  Si    1     SUB         0.000000
    597  O        36.3749   16.3341    0.5500   O    1     SUB         0.000000
    598  Si       36.3749   17.8898    1.1000  Si    1     SUB         0.000000
    599  O        37.7222   14.0007    0.5500   O    1     SUB         0.000000
    600  O        35.0277   14.0007    0.5500   O    1     SUB         0.000000
    601  O        36.3749   17.8898    2.7500   O    1     SUB         0.000000
    602  Si       36.3749   17.8898    4.4000  Si    1     SUB         0.000000
    603  O        36.3749   16.3341    4.9500   O    1     SUB         0.000000
    604  Si       36.3749   14.7785    5.5000  Si    1     SUB         0.000000
    605  O        37.7222   14.0007    4.9500   O    1     SUB         0.000000
    606  O        35.0277   14.0007    4.9500   O    1     SUB         0.000000
    607  Si       36.3749   14.7785    8.8000  Si    1     SUB         0.000000
    608  O        37.7222   14.0007    9.3500   O    1     SUB         0.000000
    609  O        35.0277   14.0007    9.3500   O    1     SUB         0.000000
    610  O        36.3749   16.3341    9.3500   O    1     SUB         0.000000
    611  Si       36.3749   17.8898    9.9000  Si    1     SUB         0.000000
    612  O        36.3749   17.8898   11.5500   O    1     SUB         0.000000
    613  O        39.0694   10.1116    7.1500   O    1     SUB         0.000000
    614  Si       39.0694   10.1116    0.0000  Si    1     SUB         0.000000
    615  O        39.0694   11.6672    0.5500   O    1     SUB         0.000000
    616  Si       39.0694   13.2229    1.1000  Si    1     SUB         0.000000
    617  O        40.4166    9.3338    0.5500   O    1     SUB         0.000000
    618  O        37.7222    9.3338    0.5500   O    1     SUB         0.000000
    619  O        39.0694   13.2229    2.7500   O    1     SUB         0.000000
    620  Si       39.0694   13.2229    4.4000  Si    1     SUB         0.000000
    621  O        39.0694   11.6672    4.9500   O    1     SUB         0.000000
    622  Si       39.0694   10.1116    5.5000  Si    1     SUB         0.000000
    623  O        40.4166    9.3338    4.9500   O    1     SUB         0.000000
    624  O        37.7222    9.3338    4.9500   O    1     SUB         0.000000
    625  Si       39.0694   10.1116    8.8000  Si    1     SUB         0.000000
    626  O        40.4166    9.3338    9.3500   O    1     SUB         0.000000
    627  O        37.7222    9.3338    9.3500   O    1     SUB         0.000000
    628  O        39.0694   11.6672    9.3500   O    1     SUB         0.000000
    629  Si       39.0694   13.2229    9.9000  Si    1     SUB         0.000000
    630  O        39.0694   13.2229   11.5500   O    1     SUB         0.000000
    631  O        41.7638   14.7785    7.1500   O    1     SUB         0.000000
    632  Si       41.7638   14.7785    0.0000  Si    1     SUB         0.000000
    633  O        41.7638   16.3341    0.5500   O    1     SUB         0.000000
    634  Si       41.7638   17.8898    1.1000  Si    1     SUB         0.000000
    635  O        43.1110   14.0007    0.5500   O    1     SUB         0.000000
    636  O        40.4166   14.0007    0.5500   O    1     SUB         0.000000
    637  O        41.7638   17.8898    2.7500   O    1     SUB         0.000000
    638  Si       41.7638   17.8898    4.4000  Si    1     SUB         0.000000
    639  O        41.7638   16.3341    4.9500   O    1     SUB         0.000000
    640  Si       41.7638   14.7785    5.5000  Si    1     SUB         0.000000
    641  O        43.1110   14.0007    4.9500   O    1     SUB         0.000000
    642  O        40.4166   14.0007    4.9500   O    1     SUB         0.000000
    643  Si       41.7638   14.7785    8.8000  Si    1     SUB         0.000000
    644  O        43.1110   14.0007    9.3500   O    1     SUB         0.000000
    645  O        40.4166   14.0007    9.3500   O    1     SUB         0.000000
    646  O        41.7638   16.3341    9.3500   O    1     SUB         0.000000
    647  Si       41.7638   17.8898    9.9000  Si    1     SUB         0.000000
    648  O        41.7638   17.8898   11.5500   O    1     SUB         0.000000
    649  O        44.4583   10.1116    7.1500   O    1     SUB         0.000000
    650  Si       44.4583   10.1116    0.0000  Si    1     SUB         0.000000
    651  O        44.4583   11.6672    0.5500   O    1     SUB         0.000000
    652  Si       44.4583   13.2229    1.1000  Si    1     SUB         0.000000
    653  O        45.8055    9.3338    0.5500   O    1     SUB         0.000000
    654  O        43.1110    9.3338    0.5500   O    1     SUB         0.000000
    655  O        44.4583   13.2229    2.7500   O    1     SUB         0.000000
    656  Si       44.4583   13.2229    4.4000  Si    1     SUB         0.000000
    657  O        44.4583   11.6672    4.9500   O    1     SUB         0.000000
    658  Si       44.4583   10.1116    5.5000  Si    1     SUB         0.000000
    659  O        45.8055    9.3338    4.9500   O    1     SUB         0.000000
    660  O        43.1110    9.3338    4.9500   O    1     SUB         0.000000
    661  Si       44.4583   10.1116    8.8000  Si    1     SUB         0.000000
    662  O        45.8055    9.3338    9.3500   O    1     SUB         0.000000
    663  O        43.1110    9.3338    9.3500   O    1     SUB         0.000000
    664  O        44.4583   11.6672    9.3500   O    1     SUB         0.000000
    665  Si       44.4583   13.2229    9.9000  Si    1     SUB         0.000000
    666  O        44.4583   13.2229   11.5500   O    1     SUB         0.000000
    667  O        47.1527   14.7785    7.1500   O    1     SUB         0.000000
    668  Si       47.1527   14.7785    0.0000  Si    1     SUB         0.000000
    669  O        47.1527   16.3341    0.5500   O    1     SUB         0.000000
    670  Si       47.1527   17.8898    1.1000  Si    1     SUB         0.000000
    671  O        48.4999   14.0007    0.5500   O    1     SUB         0.000000
    672  O        45.8055   14.0007    0.5500   O    1     SUB         0.000000
    673  O        47.1527   17.8898    2.7500   O    1     SUB         0.000000
    674  Si       47.1527   17.8898    4.4000  Si    1     SUB         0.000000
    675  O        47.1527   16.3341    4.9500   O    1     SUB         0.000000
    676  Si       47.1527   14.7785    5.5000  Si    1     SUB         0.000000
    677  O        48.4999   14.0007    4.9500   O    1     SUB         0.000000
    678  O        45.8055   14.0007    4.9500   O    1     SUB         0.000000
    679  Si       47.1527   14.7785    8.8000  Si    1     SUB         0.000000
    680  O        48.4999   14.0007    9.3500   O    1     SUB         0.000000
    681  O        45.8055   14.0007    9.3500   O    1     SUB         0.000000
    682  O        47.1527   16.3341    9.3500   O    1     SUB         0.000000
    683  Si       47.1527   17.8898    9.9000  Si    1     SUB         0.000000
    684  O        47.1527   17.8898   11.5500   O    1     SUB         0.000000
    685  O        49.8471   10.1116    7.1500   O    1     SUB         0.000000
    686  Si       49.8471   10.1116    0.0000  Si    1     SUB         0.000000
    687  O        49.8471   11.6672    0.5500   O    1     SUB         0.000000
    688  Si       49.8471   13.2229    1.1000  Si    1     SUB         0.000000
    689  O        51.1944    9.3338    0.5500   O    1     SUB         0.000000
    690  O        48.4999    9.3338    0.5500   O    1     SUB         0.000000
    691  O        49.8471   13.2229    2.7500   O    1     SUB         0.000000
    692  Si       49.8471   13.2229    4.4000  Si    1     SUB         0.000000
    693  O        49.8471   11.6672    4.9500   O    1     SUB         0.000000
    694  Si       49.8471   10.1116    5.5000  Si    1     SUB         0.000000
    695  O        51.1944    9.3338    4.9500   O    1     SUB         0.000000
    696  O        48.4999    9.3338    4.9500   O    1     SUB         0.000000
    697  Si       49.8471   10.1116    8.8000  Si    1     SUB         0.000000
    698  O        51.1944    9.3338    9.3500   O    1     SUB         0.000000
    699  O        48.4999    9.3338    9.3500   O    1     SUB         0.000000
    700  O        49.8471   11.6672    9.3500   O    1     SUB         0.000000
    701  Si       49.8471   13.2229    9.9000  Si    1     SUB         0.000000
    702  O        49.8471   13.2229   11.5500   O    1     SUB         0.000000
    703  O        52.5416   14.7785    7.1500   O    1     SUB         0.000000
    704  Si       52.5416   14.7785    0.0000  Si    1     SUB         0.000000
    705  O        52.5416   16.3341    0.5500   O    1     SUB         0.000000
    706  Si       52.5416   17.8898    1.1000  Si    1     SUB         0.000000
    707  O        53.8888   14.0007    0.5500   O    1     SUB         0.000000
    708  O        51.1944   14.0007    0.5500   O    1     SUB         0.000000
    709  O        52.5416   17.8898    2.7500   O    1     SUB         0.000000
    710  Si       52.5416   17.8898    4.4000  Si    1     SUB         0.000000
    711  O        52.5416   16.3341    4.9500   O    1     SUB         0.000000
    712  Si       52.5416   14.7785    5.5000  Si    1     SUB         0.000000
    713  O        53.8888   14.0007    4.9500   O    1     SUB         0.000000
    714  O        51.1944   14.0007    4.9500   O    1     SUB         0.000000
    715  Si       52.5416   14.7785    8.8000  Si    1     SUB         0.000000
    716  O        53.8888   14.0007    9.3500   O    1     SUB         0.000000
    717  O        51.1944   14.0007    9.3500   O    1     SUB         0.000000
    718  O        52.5416   16.3341    9.3500   O    1     SUB         0.000000
    719  Si       52.5416   17.8898    9.9000  Si    1     SUB         0.000000
    720  O        52.5416   17.8898   11.5500   O    1     SUB         0.000000
    721  O         1.3472   19.4454    7.1500   O    1     SUB         0.000000
    722  Si        1.3472   19.4454    0.0000  Si    1     SUB         0.000000
    723  O         1.3472   21.0010    0.5500   O    1     SUB         0.000000
    724  Si        1.3472   22.5567    1.1000  Si    1     SUB         0.000000
    725  O         2.6944   18.6676    0.5500   O    1     SUB         0.000000
    726  O         0.0000   18.6676    0.5500   O    1     SUB         0.000000
    727  O         1.3472   22.5567    2.7500   O    1     SUB         0.000000
    728  Si        1.3472   22.5567    4.4000  Si    1     SUB         0.000000
    729  O         1.3472   21.0010    4.9500   O    1     SUB         0.000000
    730  Si        1.3472   19.4454    5.5000  Si    1     SUB         0.000000
    731  O         2.6944   18.6676    4.9500   O    1     SUB         0.000000
    732  O         0.0000   18.6676    4.9500   O    1     SUB         0.000000
    733  Si        1.3472   19.4454    8.8000  Si    1     SUB         0.000000
    734  O         2.6944   18.6676    9.3500   O    1     SUB         0.000000
    735  O         0.0000   18.6676    9.3500   O    1     SUB         0.000000
    736  O         1.3472   21.0010    9.3500   O    1     SUB         0.000000
    737  Si        1.3472   22.5567    9.9000  Si    1     SUB         0.000000
    738  O         1.3472   22.5567   11.5500   O    1     SUB         0.000000
    739  O         4.0417   24.1123    7.1500   O    1     SUB         0.000000
    740  Si        4.0417   24.1123    0.0000  Si    1     SUB         0.000000
    741  O         4.0417   25.6679    0.5500   O    1     SUB         0.000000
    742  Si        4.0417   27.2236    1.1000  Si    1     SUB         0.000000
    743  O         5.3889   23.3345    0.5500   O    1     SUB         0.000000
    744  O         2.6944   23.3345    0.5500   O    1     SUB         0.000000
    745  O         4.0417   27.2236    2.7500   O    1     SUB         0.000000
    746  Si        4.0417   27.2236    4.4000  Si    1     SUB         0.000000
    747  O         4.0417   25.6679    4.9500   O    1     SUB         0.000000
    748  Si        4.0417   24.1123    5.5000  Si    1     SUB         0.000000
    749  O         5.3889   23.3345    4.9500   O    1     SUB         0.000000
    750  O         2.6944   23.3345    4.9500   O    1     SUB         0.000000
    751  Si        4.0417   24.1123    8.8000  Si    1     SUB         0.000000
    752  O         5.3889   23.3345    9.3500   O    1     SUB         0.000000
    753  O         2.6944   23.3345    9.3500   O    1     SUB         0.000000
    754  O         4.0417   25.6679    9.3500   O    1     SUB         0.000000
    755  Si        4.0417   27.2236    9.9000  Si    1     SUB         0.000000
    756  O         4.0417   27.2236   11.5500   O    1     SUB         0.000000
    757  O         6.7361   19.4454    7.1500   O    1     SUB         0.000000
    758  Si        6.7361   19.4454    0.0000  Si    1     SUB         0.000000
    759  O         6.7361   21.0010    0.5500   O    1     SUB         0.000000
    760  Si        6.7361   22.5567    1.1000  Si    1     SUB         0.000000
    761  O         8.0833   18.6676    0.5500   O    1     SUB         0.000000
    762  O         5.3889   18.6676    0.5500   O    1     SUB         0.000000
    763  O         6.7361   22.5567    2.7500   O    1     SUB         0.000000
    764  Si        6.7361   22.5567    4.4000  Si    1     SUB         0.000000
    765  O         6.7361   21.0010    4.9500   O    1     SUB         0.000000
    766  Si        6.7361   19.4454    5.5000  Si    1     SUB         0.000000
    767  O         8.0833   18.6676    4.9500   O    1     SUB         0.000000
    768  O         5.3889   18.6676    4.9500   O    1     SUB         0.000000
    769  Si        6.7361   19.4454    8.8000  Si    1     SUB         0.000000
    770  O         8.0833   18.6676    9.3500   O    1     SUB         0.000000
    771  O         5.3889   18.6676    9.3500   O    1     SUB         0.000000
    772  O         6.7361   21.0010    9.3500   O    1     SUB         0.000000
    773  Si        6.7361   22.5567    9.9000  Si    1     SUB         0.000000
    774  O         6.7361   22.5567   11.5500   O    1     SUB         0.000000
    775  O         9.4305   24.1123    7.1500   O    1     SUB         0.000000
    776  Si        9.4305   24.1123    0.0000  Si    1     SUB         0.000000
    777  O         9.4305   25.6679    0.5500   O    1     SUB         0.000000
    778  Si        9.4305   27.2236    1.1000  Si    1     SUB         0.000000
    779  O        10.7778   23.3345    0.5500   O    1     SUB         0.000000
    780  O         8.0833   23.3345    0.5500   O    1     SUB         0.000000
    781  O         9.4305   27.2236    2.7500   O    1     SUB         0.000000
    782  Si        9.4305   27.2236    4.4000  Si    1     SUB         0.000000
    783  O         9.4305   25.6679    4.9500   O    1     SUB         0.000000
    784  Si        9.4305   24.1123    5.5000  Si    1     SUB         0.000000
    785  O        10.7778   23.3345    4.9500   O    1     SUB         0.000000
    786  O         8.0833   23.3345    4.9500   O    1     SUB         0.000000
    787  Si        9.4305   24.1123    8.8000  Si    1     SUB         0.000000
    788  O        10.7778   23.3345    9.3500   O    1     SUB         0.000000
    789  O         8.0833   23.3345    9.3500   O    1     SUB         0.000000
    790  O         9.4305   25.6679    9.3500   O    1     SUB         0.000000
    791  Si        9.4305   27.2236    9.9000  Si    1     SUB         0.000000
    792  O         9.4305   27.2236   11.5500   O    1     SUB         0.000000
    793  O        12.1250   19.4454    7.1500   O    1     SUB         0.000000
    794  Si       12.1250   19.4454    0.0000  Si    1     SUB         0.000000
    795  O        12.1250   21.0010    0.5500   O    1     SUB         0.000000
    796  Si       12.1250   22.5567    1.1000  Si    1     SUB         0.000000
    797  O        13.4722   18.6676    0.5500   O    1     SUB         0.000000
    798  O        10.7778   18.6676    0.5500   O    1     SUB         0.000000
    799  O        12.1250   22.5567    2.7500   O    1     SUB         0.000000
    800  Si       12.1250   22.5567    4.4000  Si    1     SUB         0.000000
    801  O        12.1250   21.0010    4.9500   O    1     SUB         0.000000
    802  Si       12.1250   19.4454    5.5000  Si    1     SUB         0.000000
    803  O        13.4722   18.6676    4.9500   O    1     SUB         0.000000
    804  O        10.7778   18.6676    4.9500   O    1     SUB         0.000000
    805  Si       12.1250   19.4454    8.8000  Si    1     SUB         0.000000
    806  O        13.4722   18.6676    9.3500   O    1     SUB         0.000000
    807  O        10.7778   18.6676    9.3500   O    1     SUB         0.000000
    808  O        12.1250   21.0010    9.3500   O    1     SUB         0.000000
    809  Si       12.1250   22.5567    9.9000  Si    1     SUB         0.000000
    810  O        12.1250   22.5567   11.5500   O    1     SUB         0.000000
    811  O        14.8194   24.1123    7.1500   O    1     SUB         0.000000
    812  Si       14.8194   24.1123    0.0000  Si    1     SUB         0.000000
    813  O        14.8194   25.6679    0.5500   O    1     SUB         0.000000
    814  Si       14.8194   27.2236    1.1000  Si    1     SUB         0.000000
    815  O        16.1666   23.3345    0.5500   O    1     SUB         0.000000
    816  O        13.4722   23.3345    0.5500   O    1     SUB         0.000000
    817  O        14.8194   27.2236    2.7500   O    1     SUB         0.000000
    818  Si       14.8194   27.2236    4.4000  Si    1     SUB         0.000000
    819  O        14.8194   25.6679    4.9500   O    1     SUB         0.000000
    820  Si       14.8194   24.1123    5.5000  Si    1     SUB         0.000000
    821  O        16.1666   23.3345    4.9500   O    1     SUB         0.000000
    822  O        13.4722   23.3345    4.9500   O    1     SUB         0.000000
    823  Si       14.8194   24.1123    8.8000  Si    1     SUB         0.000000
    824  O        16.1666   23.3345    9.3500   O    1     SUB         0.000000
    825  O        13.4722   23.3345    9.3500   O    1     SUB         0.000000
    826  O        14.8194   25.6679    9.3500   O    1     SUB         0.000000
    827  Si       14.8194   27.2236    9.9000  Si    1     SUB         0.000000
    828  O        14.8194   27.2236   11.5500   O    1     SUB         0.000000
    829  O        17.5139   19.4454    7.1500   O    1     SUB         0.000000
    830  Si       17.5139   19.4454    0.0000  Si    1     SUB         0.000000
    831  O        17.5139   21.0010    0.5500   O    1     SUB         0.000000
    832  Si       17.5139   22.5567    1.1000  Si    1     SUB         0.000000
    833  O        18.8611   18.6676    0.5500   O    1     SUB         0.000000
    834  O        16.1666   18.6676    0.5500   O    1     SUB         0.000000
    835  O        17.5139   22.5567    2.7500   O    1     SUB         0.000000
    836  Si       17.5139   22.5567    4.4000  Si    1     SUB         0.000000
    837  O        17.5139   21.0010    4.9500   O    1     SUB         0.000000
    838  Si       17.5139   19.4454    5.5000  Si    1     SUB         0.000000
    839  O        18.8611   18.6676    4.9500   O    1     SUB         0.000000
    840  O        16.1666   18.6676    4.9500   O    1     SUB         0.000000
    841  Si       17.5139   19.4454    8.8000  Si    1     SUB         0.000000
    842  O        18.8611   18.6676    9.3500   O    1     SUB         0.000000
    843  O        16.1666   18.6676    9.3500   O    1     SUB         0.000000
    844  O        17.5139   21.0010    9.3500   O    1     SUB         0.000000
    845  Si       17.5139   22.5567    9.9000  Si    1     SUB         0.000000
    846  O        17.5139   22.5567   11.5500   O    1     SUB         0.000000
    847  O        20.2083   24.1123    7.1500   O    1     SUB         0.000000
    848  Si       20.2083   24.1123    0.0000  Si    1     SUB         0.000000
    849  O        20.2083   25.6679    0.5500   O    1     SUB         0.000000
    850  Si       20.2083   27.2236    1.1000  Si    1     SUB         0.000000
    851  O        21.5555   23.3345    0.5500   O    1     SUB         0.000000
    852  O        18.8611   23.3345    0.5500   O    1     SUB         0.000000
    853  O        20.2083   27.2236    2.7500   O    1     SUB         0.000000
    854  Si       20.2083   27.2236    4.4000  Si    1     SUB         0.000000
    855  O        20.2083   25.6679    4.9500   O    1     SUB         0.000000
    856  Si       20.2083   24.1123    5.5000  Si    1     SUB         0.000000
    857  O        21.5555   23.3345    4.9500   O    1     SUB         0.000000
    858  O        18.8611   23.3345    4.9500   O    1     SUB         0.000000
    859  Si       20.2083   24.1123    8.8000  Si    1     SUB         0.000000
    860  O        21.5555   23.3345    9.3500   O    1     SUB         0.000000
    861  O        18.8611   23.3345    9.3500   O    1     SUB         0.000000
    862  O        20.2083   25.6679    9.3500   O    1     SUB         0.000000
    863  Si       20.2083   27.2236    9.9000  Si    1     SUB         0.000000
    864  O        20.2083   27.2236   11.5500   O    1     SUB         0.000000
    865  O        22.9027   19.4454    7.1500   O    1     SUB         0.000000
    866  Si       22.9027   19.4454    0.0000  Si    1     SUB         0.000000
    867  O        22.9027   21.0010    0.5500   O    1     SUB         0.000000
    868  Si       22.9027   22.5567    1.1000  Si    1     SUB         0.000000
    869  O        24.2500   18.6676    0.5500   O    1     SUB         0.000000
    870  O        21.5555   18.6676    0.5500   O    1     SUB         0.000000
    871  O        22.9027   22.5567    2.7500   O    1     SUB         0.000000
    872  Si       22.9027   22.5567    4.4000  Si    1     SUB         0.000000
    873  O        22.9027   21.0010    4.9500   O    1     SUB         0.000000
    874  Si       22.9027   19.4454    5.5000  Si    1     SUB         0.000000
    875  O        24.2500   18.6676    4.9500   O    1     SUB         0.000000
    876  O        21.5555   18.6676    4.9500   O    1     SUB         0.000000
    877  Si       22.9027   19.4454    8.8000  Si    1     SUB         0.000000
    878  O        24.2500   18.6676    9.3500   O    1     SUB         0.000000
    879  O        21.5555   18.6676    9.3500   O    1     SUB         0.000000
    880  O        22.9027   21.0010    9.3500   O    1     SUB         0.000000
    881  Si       22.9027   22.5567    9.9000  Si    1     SUB         0.000000
    882  O        22.9027   22.5567   11.5500   O    1     SUB         0.000000
    883  O        25.5972   24.1123    7.1500   O    1     SUB         0.000000
    884  Si       25.5972   24.1123    0.0000  Si    1     SUB         0.000000
    885  O        25.5972   25.6679    0.5500   O    1     SUB         0.000000
    886  Si       25.5972   27.2236    1.1000  Si    1     SUB         0.000000
    887  O        26.9444   23.3345    0.5500   O    1     SUB         0.000000
    888  O        24.2500   23.3345    0.5500   O    1     SUB         0.000000
    889  O        25.5972   27.2236    2.7500   O    1     SUB         0.000000
    890  Si       25.5972   27.2236    4.4000  Si    1     SUB         0.000000
    891  O        25.5972   25.6679    4.9500   O    1     SUB         0.000000
    892  Si       25.5972   24.1123    5.5000  Si    1     SUB         0.000000
    893  O        26.9444   23.3345    4.9500   O    1     SUB         0.000000
    894  O        24.2500   23.3345    4.9500   O    1     SUB         0.000000
    895  Si       25.5972   24.1123    8.8000  Si    1     SUB         0.000000
    896  O        26.9444   23.3345    9.3500   O    1     SUB         0.000000
    897  O        24.2500   23.3345    9.3500   O    1     SUB         0.000000
    898  O        25.5972   25.6679    9.3500   O    1     SUB         0.000000
    899  Si       25.5972   27.2236    9.9000  Si    1     SUB         0.000000
    900  O        25.5972   27.2236   11.5500   O    1     SUB         0.000000
    901  O        28.2916   19.4454    7.1500   O    1     SUB         0.000000
    902  Si       28.2916   19.4454    0.0000  Si    1     SUB         0.000000
    903  O        28.2916   21.0010    0.5500   O    1     SUB         0.000000
    904  Si       28.2916   22.5567    1.1000  Si    1     SUB         0.000000
    905  O        29.6388   18.6676    0.5500   O    1     SUB         0.000000
    906  O        26.9444   18.6676    0.5500   O    1     SUB         0.000000
    907  O        28.2916   22.5567    2.7500   O    1     SUB         0.000000
    908  Si       28.2916   22.5567    4.4000  Si    1     SUB         0.000000
    909  O        28.2916   21.0010    4.9500   O    1     SUB         0.000000
    910  Si       28.2916   19.4454    5.5000  Si    1     SUB         0.000000
    911  O        29.6388   18.6676    4.9500   O    1     SUB         0.000000
    912  O        26.9444   18.6676    4.9500   O    1     SUB         0.000000
    913  Si       28.2916   19.4454    8.8000  Si    1     SUB         0.000000
    914  O        29.6388   18.6676    9.3500   O    1     SUB         0.000000
    915  O        26.9444   18.6676    9.3500   O    1     SUB         0.000000
    916  O        28.2916   21.0010    9.3500   O    1     SUB         0.000000
    917  Si       28.2916   22.5567    9.9000  Si    1     SUB         0.000000
    918  O        28.2916   22.5567   11.5500   O    1     SUB         0.000000
    919  O        30.9861   24.1123    7.1500   O    1     SUB         0.000000
    920  Si       30.9861   24.1123    0.0000  Si    1     SUB         0.000000
    921  O        30.9861   25.6679    0.5500   O    1     SUB         0.000000
    922  Si       30.9861   27.2236    1.1000  Si    1     SUB         0.000000
    923  O        32.3333   23.3345    0.5500   O    1     SUB         0.000000
    924  O        29.6388   23.3345    0.5500   O    1     SUB         0.000000
    925  O        30.9861   27.2236    2.7500   O    1     SUB         0.000000
    926  Si       30.9861   27.2236    4.4000  Si    1     SUB         0.000000
    927  O        30.9861   25.6679    4.9500   O    1     SUB         0.000000
    928  Si       30.9861   24.1123    5.5000  Si    1     SUB         0.000000
    929  O        32.3333   23.3345    4.9500   O    1     SUB         0.000000
    930  O        29.6388   23.3345    4.9500   O    1     SUB         0.000000
    931  Si       30.9861   24.1123    8.8000  Si    1     SUB         0.000000
    932  O        32.3333   23.3345    9.3500   O    1     SUB         0.000000
    933  O        29.6388   23.3345    9.3500   O    1     SUB         0.000000
    934  O        30.9861   25.6679    9.3500   O    1     SUB         0.000000
    935  Si       30.9861   27.2236    9.9000  Si    1     SUB         0.000000
    936  O        30.9861   27.2236   11.5500   O    1     SUB         0.000000
    937  O        33.6805   19.4454    7.1500   O    1     SUB         0.000000
    938  Si       33.6805   19.4454    0.0000  Si    1     SUB         0.000000
    939  O        33.6805   21.0010    0.5500   O    1     SUB         0.000000
    940  Si       33.6805   22.5567    1.1000  Si    1     SUB         0.000000
    941  O        35.0277   18.6676    0.5500   O    1     SUB         0.000000
    942  O        32.3333   18.6676    0.5500   O    1     SUB         0.000000
    943  O        33.6805   22.5567    2.7500   O    1     SUB         0.000000
    944  Si       33.6805   22.5567    4.4000  Si    1     SUB         0.000000
    945  O        33.6805   21.0010    4.9500   O    1     SUB         0.000000
    946  Si       33.6805   19.4454    5.5000  Si    1     SUB         0.000000
    947  O        35.0277   18.6676    4.9500   O    1     SUB         0.000000
    948  O        32.3333   18.6676    4.9500   O    1     SUB         0.000000
    949  Si       33.6805   19.4454    8.8000  Si    1     SUB         0.000000
    950  O        35.0277   18.6676    9.3500   O    1     SUB         0.000000
    951  O        32.3333   18.6676    9.3500   O    1     SUB         0.000000
    952  O        33.6805   21.0010    9.3500   O    1     SUB         0.000000
    953  Si       33.6805   22.5567    9.9000  Si    1     SUB         0.000000
    954  O        33.6805   22.5567   11.5500   O    1     SUB         0.000000
    955  O        36.3749   24.1123    7.1500   O    1     SUB         0.000000
    956  Si       36.3749   24.1123    0.0000  Si    1     SUB         0.000000
    957  O        36.3749   25.6679    0.5500   O    1     SUB         0.000000
    958  Si       36.3749   27.2236    1.1000  Si    1     SUB         0.000000
    959  O        37.7222   23.3345    0.5500   O    1     SUB         0.000000
    960  O        35.0277   23.3345    0.5500   O    1     SUB         0.000000
    961  O        36.3749   27.2236    2.7500   O    1     SUB         0.000000
    962  Si       36.3749   27.2236    4.4000  Si    1     SUB         0.000000
    963  O        36.3749   25.6679    4.9500   O    1     SUB         0.000000
    964  Si       36.3749   24.1123    5.5000  Si    1     SUB         0.000000
    965  O        37.7222   23.3345    4.9500   O    1     SUB         0.000000
    966  O        35.0277   23.3345    4.9500   O    1     SUB         0.000000
    967  Si       36.3749   24.1123    8.8000  Si    1     SUB         0.000000
    968  O        37.7222   23.3345    9.3500   O    1     SUB         0.000000
    969  O        35.0277   23.3345    9.3500   O    1     SUB         0.000000
    970  O        36.3749   25.6679    9.3500   O    1     SUB         0.000000
    971  Si       36.3749   27.2236    9.9000  Si    1     SUB         0.000000
    972  O        36.3749   27.2236   11.5500   O    1     SUB         0.000000
    973  O        39.0694   19.4454    7.1500   O    1     SUB         0.000000
    974  Si       39.0694   19.4454    0.0000  Si    1     SUB         0.000000
    975  O        39.0694   21.0010    0.5500   O    1     SUB         0.000000
    976  Si       39.0694   22.5567    1.1000  Si    1     SUB         0.000000
    977  O        40.4166   18.6676    0.5500   O    1     SUB         0.000000
    978  O        37.7222   18.6676    0.5500   O    1     SUB         0.000000
    979  O        39.0694   22.5567    2.7500   O    1     SUB         0.000000
    980  Si       39.0694   22.5567    4.4000  Si    1     SUB         0.000000
    981  O        39.0694   21.0010    4.9500   O    1     SUB         0.000000
    982  Si       39.0694   19.4454    5.5000  Si    1     SUB         0.000000
    983  O        40.4166   18.6676    4.9500   O    1     SUB         0.000000
    984  O        37.7222   18.6676    4.9500   O    1     SUB         0.000000
    985  Si       39.0694   19.4454    8.8000  Si    1     SUB         0.000000
    986  O        40.4166   18.6676    9.3500   O    1     SUB         0.000000
    987  O        37.7222   18.6676    9.3500   O    1     SUB         0.000000
    988  O        39.0694   21.0010    9.3500   O    1     SUB         0.000000
    989  Si       39.0694   22.5567    9.9000  Si    1     SUB         0.000000
    990  O        39.0694   22.5567   11.5500   O    1     SUB         0.000000
    991  O        41.7638   24.1123    7.1500   O    1     SUB         0.000000
    992  Si       41.7638   24.1123    0.0000  Si    1     SUB         0.000000
    993  O        41.7638   25.6679    0.5500   O    1     SUB         0.000000
    994  Si       41.7638   27.2236    1.1000  Si    1     SUB         0.000000
    995  O        43.1110   23.3345    0.5500   O    1     SUB         0.000000
    996  O        40.4166   23.3345    0.5500   O    1     SUB         0.000000
    997  O        41.7638   27.2236    2.7500   O    1     SUB         0.000000
    998  Si       41.7638   27.2236    4.4000  Si    1     SUB         0.000000
    999  O        41.7638   25.6679    4.9500   O    1     SUB         0.000000
   1000  Si       41.7638   24.1123    5.5000  Si    1     SUB         0.000000
   1001  O        43.1110   23.3345    4.9500   O    1     SUB         0.000000
   1002  O        40.4166   23.3345    4.9500   O    1     SUB         0.000000
   1003  Si       41.7638   24.1123    8.8000  Si    1     SUB         0.000000
   1004  O        43.1110   23.3345    9.3500   O    1     SUB         0.000000
   1005  O        40.4166   23.3345    9.3500   O    1     SUB         0.000000
   1006  O        41.7638   25.6679    9.3500   O    1     SUB         0.000000
   1007  Si       41.7638   27.2236    9.9000  Si    1     SUB         0.000000
   1008  O        41.7638   27.2236   11.5500   O    1     SUB         0.000000
   1009  O        44.4583   19.4454    7.1500   O    1     SUB         0.000000
   1010  Si       44.4583   19.4454    0.0000  Si    1     SUB         0.000000
   1011  O        44.4583   21.0010    0.5500   O    1     SUB         0.000000
   1012  Si       44.4583   22.5567    1.1000  Si    1     SUB         0.000000
   1013  O        45.8055   18.6676    0.5500   O    1     SUB         0.000000
   1014  O        43.1110   18.6676    0.5500   O    1     SUB         0.000000
   1015  O        44.4583   22.5567    2.7500   O    1     SUB         0.000000
   1016  Si       44.4583   22.5567    4.4000  Si    1     SUB         0.000000
   1017  O        44.4583   21.0010    4.9500   O    1     SUB         0.000000
   1018  Si       44.4583   19.4454    5.5000  Si    1     SUB         0.000000
   1019  O        45.8055   18.6676    4.9500   O    1     SUB         0.000000
   1020  O        43.1110   18.6676    4.9500   O    1     SUB         0.000000
   1021  Si       44.4583   19.4454    8.8000  Si    1     SUB         0.000000
   1022  O        45.8055   18.6676    9.3500   O    1     SUB         0.000000
   1023  O        43.1110   18.6676    9.3500   O    1     SUB         0.000000
   1024  O        44.4583   21.0010    9.3500   O    1     SUB         0.000000
   1025  Si       44.4583   22.5567    9.9000  Si    1     SUB         0.000000
   1026  O        44.4583   22.5567   11.5500   O    1     SUB         0.000000
   1027  O        47.1527   24.1123    7.1500   O    1     SUB         0.000000
   1028  Si       47.1527   24.1123    0.0000  Si    1     SUB         0.000000
   1029  O        47.1527   25.6679    0.5500   O    1     SUB         0.000000
   1030  Si       47.1527   27.2236    1.1000  Si    1     SUB         0.000000
   1031  O        48.4999   23.3345    0.5500   O    1     SUB         0.000000
   1032  O        45.8055   23.3345    0.5500   O    1     SUB         0.000000
   1033  O        47.1527   27.2236    2.7500   O    1     SUB         0.000000
   1034  Si       47.1527   27.2236    4.4000  Si    1     SUB         0.000000
   1035  O        47.1527   25.6679    4.9500   O    1     SUB         0.000000
   1036  Si       47.1527   24.1123    5.5000  Si    1     SUB         0.000000
   1037  O        48.4999   23.3345    4.9500   O    1     SUB         0.000000
   1038  O        45.8055   23.3345    4.9500   O    1     SUB         0.000000
   1039  Si       47.1527   24.1123    8.8000  Si    1     SUB         0.000000
   1040  O        48.4999   23.3345    9.3500   O    1     SUB         0.000000
   1041  O        45.8055   23.3345    9.3500   O    1     SUB         0.000000
   1042  O        47.1527   25.6679    9.3500   O    1     SUB         0.000000
   1043  Si       47.1527   27.2236    9.9000  Si    1     SUB         0.000000
   1044  O        47.1527   27.2236   11.5500   O    1     SUB         0.000000
   1045  O        49.8471   19.4454    7.1500   O    1     SUB         0.000000
   1046  Si       49.8471   19.4454    0.0000  Si    1     SUB         0.000000
   1047  O        49.8471   21.0010    0.5500   O    1     SUB         0.000000
   1048  Si       49.8471   22.5567    1.1000  Si    1     SUB         0.000000
   1049  O        51.1944   18.6676    0.5500   O    1     SUB         0.000000
   1050  O        48.4999   18.6676    0.5500   O    1     SUB         0.000000
   1051  O        49.8471   22.5567    2.7500   O    1     SUB         0.000000
   1052  Si       49.8471   22.5567    4.4000  Si    1     SUB         0.000000
   1053  O        49.8471   21.0010    4.9500   O    1     SUB         0.000000
   1054  Si       49.8471   19.4454    5.5000  Si    1     SUB         0.000000
   1055  O        51.1944   18.6676    4.9500   O    1     SUB         0.000000
   1056  O        48.4999   18.6676    4.9500   O    1     SUB         0.000000
   1057  Si       49.8471   19.4454    8.8000  Si    1     SUB         0.000000
   1058  O        51.1944   18.6676    9.3500   O    1     SUB         0.000000
   1059  O        48.4999   18.6676    9.3500   O    1     SUB         0.000000
   1060  O        49.8471   21.0010    9.3500   O    1     SUB         0.000000
   1061  Si       49.8471   22.5567    9.9000  Si    1     SUB         0.000000
   1062  O        49.8471   22.5567   11.5500   O    1     SUB         0.000000
   1063  O        52.5416   24.1123    7.1500   O    1     SUB         0.000000
   1064  Si       52.5416   24.1123    0.0000  Si    1     SUB         0.000000
   1065  O        52.5416   25.6679    0.5500   O    1     SUB         0.000000
   1066  Si       52.5416   27.2236    1.1000  Si    1     SUB         0.000000
   1067  O        53.8888   23.3345    0.5500   O    1     SUB         0.000000
   1068  O        51.1944   23.3345    0.5500   O    1     SUB         0.000000
   1069  O        52.5416   27.2236    2.7500   O    1     SUB         0.000000
   1070  Si       52.5416   27.2236    4.4000  Si    1     SUB         0.000000
   1071  O        52.5416   25.6679    4.9500   O    1     SUB         0.000000
   1072  Si       52.5416   24.1123    5.5000  Si    1     SUB         0.000000
   1073  O        53.8888   23.3345    4.9500   O    1     SUB         0.000000
   1074  O        51.1944   23.3345    4.9500   O    1     SUB         0.000000
   1075  Si       52.5416   24.1123    8.8000  Si    1     SUB         0.000000
   1076  O        53.8888   23.3345    9.3500   O    1     SUB         0.000000
   1077  O        51.1944   23.3345    9.3500   O    1     SUB         0.000000
   1078  O        52.5416   25.6679    9.3500   O    1     SUB         0.000000
   1079  Si       52.5416   27.2236    9.9000  Si    1     SUB         0.000000
   1080  O        52.5416   27.2236   11.5500   O    1     SUB         0.000000
   1081  O         1.3472   28.7792    7.1500   O    1     SUB         0.000000
   1082  Si        1.3472   28.7792    0.0000  Si    1     SUB         0.000000
   1083  O         1.3472   30.3348    0.5500   O    1     SUB         0.000000
   1084  Si        1.3472   31.8904    1.1000  Si    1     SUB         0.000000
   1085  O         2.6944   28.0013    0.5500   O    1     SUB         0.000000
   1086  O         0.0000   28.0013    0.5500   O    1     SUB         0.000000
   1087  O         1.3472   31.8904    2.7500   O    1     SUB         0.000000
   1088  Si        1.3472   31.8904    4.4000  Si    1     SUB         0.000000
   1089  O         1.3472   30.3348    4.9500   O    1     SUB         0.000000
   1090  Si        1.3472   28.7792    5.5000  Si    1     SUB         0.000000
   1091  O         2.6944   28.0013    4.9500   O    1     SUB         0.000000
   1092  O         0.0000   28.0013    4.9500   O    1     SUB         0.000000
   1093  Si        1.3472   28.7792    8.8000  Si    1     SUB         0.000000
   1094  O         2.6944   28.0013    9.3500   O    1     SUB         0.000000
   1095  O         0.0000   28.0013    9.3500   O    1     SUB         0.000000
   1096  O         1.3472   30.3348    9.3500   O    1     SUB         0.000000
   1097  Si        1.3472   31.8904    9.9000  Si    1     SUB         0.000000
   1098  O         1.3472   31.8904   11.5500   O    1     SUB         0.000000
   1099  O         4.0417   33.4461    7.1500   O    1     SUB         0.000000
   1100  Si        4.0417   33.4461    0.0000  Si    1     SUB         0.000000
   1101  O         4.0417   35.0017    0.5500   O    1     SUB         0.000000
   1102  Si        4.0417   36.5573    1.1000  Si    1     SUB         0.000000
   1103  O         5.3889   32.6683    0.5500   O    1     SUB         0.000000
   1104  O         2.6944   32.6683    0.5500   O    1     SUB         0.000000
   1105  O         4.0417   36.5573    2.7500   O    1     SUB         0.000000
   1106  Si        4.0417   36.5573    4.4000  Si    1     SUB         0.000000
   1107  O         4.0417   35.0017    4.9500   O    1     SUB         0.000000
   1108  Si        4.0417   33.4461    5.5000  Si    1     SUB         0.000000
   1109  O         5.3889   32.6683    4.9500   O    1     SUB         0.000000
   1110  O         2.6944   32.6683    4.9500   O    1     SUB         0.000000
   1111  Si        4.0417   33.4461    8.8000  Si    1     SUB         0.000000
   1112  O         5.3889   32.6683    9.3500   O    1     SUB         0.000000
   1113  O         2.6944   32.6683    9.3500   O    1     SUB         0.000000
   1114  O         4.0417   35.0017    9.3500   O    1     SUB         0.000000
   1115  Si        4.0417   36.5573    9.9000  Si    1     SUB         0.000000
   1116  O         4.0417   36.5573   11.5500   O    1     SUB         0.000000
   1117  O         6.7361   28.7792    7.1500   O    1     SUB         0.000000
   1118  Si        6.7361   28.7792    0.0000  Si    1     SUB         0.000000
   1119  O         6.7361   30.3348    0.5500   O    1     SUB         0.000000
   1120  Si        6.7361   31.8904    1.1000  Si    1     SUB         0.000000
   1121  O         8.0833   28.0013    0.5500   O    1     SUB         0.000000
   1122  O         5.3889   28.0013    0.5500   O    1     SUB         0.000000
   1123  O         6.7361   31.8904    2.7500   O    1     SUB         0.000000
   1124  Si        6.7361   31.8904    4.4000  Si    1     SUB         0.000000
   1125  O         6.7361   30.3348    4.9500   O    1     SUB         0.000000
   1126  Si        6.7361   28.7792    5.5000  Si    1     SUB         0.000000
   1127  O         8.0833   28.0013    4.9500   O    1     SUB         0.000000
   1128  O         5.3889   28.0013    4.9500   O    1     SUB         0.000000
   1129  Si        6.7361   28.7792    8.8000  Si    1     SUB         0.000000
   1130  O         8.0833   28.0013    9.3500   O    1     SUB         0.000000
   1131  O         5.3889   28.0013    9.3500   O    1     SUB         0.000000
   1132  O         6.7361   30.3348    9.3500   O    1     SUB         0.000000
   1133  Si        6.7361   31.8904    9.9000  Si    1     SUB         0.000000
   1134  O         6.7361   31.8904   11.5500   O    1     SUB         0.000000
   1135  O         9.4305   33.4461    7.1500   O    1     SUB         0.000000
   1136  Si        9.4305   33.4461    0.0000  Si    1     SUB         0.000000
   1137  O         9.4305   35.0017    0.5500   O    1     SUB         0.000000
   1138  Si        9.4305   36.5573    1.1000  Si    1     SUB         0.000000
   1139  O        10.7778   32.6683    0.5500   O    1     SUB         0.000000
   1140  O         8.0833   32.6683    0.5500   O    1     SUB         0.000000
   1141  O         9.4305   36.5573    2.7500   O    1     SUB         0.000000
   1142  Si        9.4305   36.5573    4.4000  Si    1     SUB         0.000000
   1143  O         9.4305   35.0017    4.9500   O    1     SUB         0.000000
   1144  Si        9.4305   33.4461    5.5000  Si    1     SUB         0.000000
   1145  O        10.7778   32.6683    4.9500   O    1     SUB         0.000000
   1146  O         8.0833   32.6683    4.9500   O    1     SUB         0.000000
   1147  Si        9.4305   33.4461    8.8000  Si    1     SUB         0.000000
   1148  O        10.7778   32.6683    9.3500   O    1     SUB         0.000000
   1149  O         8.0833   32.6683    9.3500   O    1     SUB         0.000000
   1150  O         9.4305   35.0017    9.3500   O    1     SUB         0.000000
   1151  Si        9.4305   36.5573    9.9000  Si    1     SUB         0.000000
   1152  O         9.4305   36.5573   11.5500   O    1     SUB         0.000000
   1153  O        12.1250   28.7792    7.1500   O    1     SUB         0.000000
   1154  Si       12.1250   28.7792    0.0000  Si    1     SUB         0.000000
   1155  O        12.1250   30.3348    0.5500   O    1     SUB         0.000000
   1156  Si       12.1250   31.8904    1.1000  Si    1     SUB         0.000000
   1157  O        13.4722   28.0013    0.5500   O    1     SUB         0.000000
   1158  O        10.7778   28.0013    0.5500   O    1     SUB         0.000000
   1159  O        12.1250   31.8904    2.7500   O    1     SUB         0.000000
   1160  Si       12.1250   31.8904    4.4000  Si    1     SUB         0.000000
   1161  O        12.1250   30.3348    4.9500   O    1     SUB         0.000000
   1162  Si       12.1250   28.7792    5.5000  Si    1     SUB         0.000000
   1163  O        13.4722   28.0013    4.9500   O    1     SUB         0.000000
   1164  O        10.7778   28.0013    4.9500   O    1     SUB         0.000000
   1165  Si       12.1250   28.7792    8.8000  Si    1     SUB         0.000000
   1166  O        13.4722   28.0013    9.3500   O    1     SUB         0.000000
   1167  O        10.7778   28.0013    9.3500   O    1     SUB         0.000000
   1168  O        12.1250   30.3348    9.3500   O    1     SUB         0.000000
   1169  Si       12.1250   31.8904    9.9000  Si    1     SUB         0.000000
   1170  O        12.1250   31.8904   11.5500   O    1     SUB         0.000000
   1171  O        14.8194   33.4461    7.1500   O    1     SUB         0.000000
   1172  Si       14.8194   33.4461    0.0000  Si    1     SUB         0.000000
   1173  O        14.8194   35.0017    0.5500   O    1     SUB         0.000000
   1174  Si       14.8194   36.5573    1.1000  Si    1     SUB         0.000000
   1175  O        16.1666   32.6683    0.5500   O    1     SUB         0.000000
   1176  O        13.4722   32.6683    0.5500   O    1     SUB         0.000000
   1177  O        14.8194   36.5573    2.7500   O    1     SUB         0.000000
   1178  Si       14.8194   36.5573    4.4000  Si    1     SUB         0.000000
   1179  O        14.8194   35.0017    4.9500   O    1     SUB         0.000000
   1180  Si       14.8194   33.4461    5.5000  Si    1     SUB         0.000000
   1181  O        16.1666   32.6683    4.9500   O    1     SUB         0.000000
   1182  O        13.4722   32.6683    4.9500   O    1     SUB         0.000000
   1183  Si       14.8194   33.4461    8.8000  Si    1     SUB         0.000000
   1184  O        16.1666   32.6683    9.3500   O    1     SUB         0.000000
   1185  O        13.4722   32.6683    9.3500   O    1     SUB         0.000000
   1186  O        14.8194   35.0017    9.3500   O    1     SUB         0.000000
   1187  Si       14.8194   36.5573    9.9000  Si    1     SUB         0.000000
   1188  O        14.8194   36.5573   11.5500   O    1     SUB         0.000000
   1189  O        17.5139   28.7792    7.1500   O    1     SUB         0.000000
   1190  Si       17.5139   28.7792    0.0000  Si    1     SUB         0.000000
   1191  O        17.5139   30.3348    0.5500   O    1     SUB         0.000000
   1192  Si       17.5139   31.8904    1.1000  Si    1     SUB         0.000000
   1193  O        18.8611   28.0013    0.5500   O    1     SUB         0.000000
   1194  O        16.1666   28.0013    0.5500   O    1     SUB         0.000000
   1195  O        17.5139   31.8904    2.7500   O    1     SUB         0.000000
   1196  Si       17.5139   31.8904    4.4000  Si    1     SUB         0.000000
   1197  O        17.5139   30.3348    4.9500   O    1     SUB         0.000000
   1198  Si       17.5139   28.7792    5.5000  Si    1     SUB         0.000000
   1199  O        18.8611   28.0013    4.9500   O    1     SUB         0.000000
   1200  O        16.1666   28.0013    4.9500   O    1     SUB         0.000000
   1201  Si       17.5139   28.7792    8.8000  Si    1     SUB         0.000000
   1202  O        18.8611   28.0013    9.3500   O    1     SUB         0.000000
   1203  O        16.1666   28.0013    9.3500   O    1     SUB         0.000000
   1204  O        17.5139   30.3348    9.3500   O    1     SUB         0.000000
   1205  Si       17.5139   31.8904    9.9000  Si    1     SUB         0.000000
   1206  O        17.5139   31.8904   11.5500   O    1     SUB         0.000000
   1207  O        20.2083   33.4461    7.1500   O    1     SUB         0.000000
   1208  Si       20.2083   33.4461    0.0000  Si    1     SUB         0.000000
   1209  O        20.2083   35.0017    0.5500   O    1     SUB         0.000000
   1210  Si       20.2083   36.5573    1.1000  Si    1     SUB         0.000000
   1211  O        21.5555   32.6683    0.5500   O    1     SUB         0.000000
   1212  O        18.8611   32.6683    0.5500   O    1     SUB         0.000000
   1213  O        20.2083   36.5573    2.7500   O    1     SUB         0.000000
   1214  Si       20.2083   36.5573    4.4000  Si    1     SUB         0.000000
   1215  O        20.2083   35.0017    4.9500   O    1     SUB         0.000000
   1216  Si       20.2083   33.4461    5.5000  Si    1     SUB         0.000000
   1217  O        21.5555   32.6683    4.9500   O    1     SUB         0.000000
   1218  O        18.8611   32.6683    4.9500   O    1     SUB         0.000000
   1219  Si       20.2083   33.4461    8.8000  Si    1     SUB         0.000000
   1220  O        21.5555   32.6683    9.3500   O    1     SUB         0.000000
   1221  O        18.8611   32.6683    9.3500   O    1     SUB         0.000000
   1222  O        20.2083   35.0017    9.3500   O    1     SUB         0.000000
   1223  Si       20.2083   36.5573    9.9000  Si    1     SUB         0.000000
   1224  O        20.2083   36.5573   11.5500   O    1     SUB         0.000000
   1225  O        22.9027   28.7792    7.1500   O    1     SUB         0.000000
   1226  Si       22.9027   28.7792    0.0000  Si    1     SUB         0.000000
   1227  O        22.9027   30.3348    0.5500   O    1     SUB         0.000000
   1228  Si       22.9027   31.8904    1.1000  Si    1     SUB         0.000000
   1229  O        24.2500   28.0013    0.5500   O    1     SUB         0.000000
   1230  O        21.5555   28.0013    0.5500   O    1     SUB         0.000000
   1231  O        22.9027   31.8904    2.7500   O    1     SUB         0.000000
   1232  Si       22.9027   31.8904    4.4000  Si    1     SUB         0.000000
   1233  O        22.9027   30.3348    4.9500   O    1     SUB         0.000000
   1234  Si       22.9027   28.7792    5.5000  Si    1     SUB         0.000000
   1235  O        24.2500   28.0013    4.9500   O    1     SUB         0.000000
   1236  O        21.5555   28.0013    4.9500   O    1     SUB         0.000000
   1237  Si       22.9027   28.7792    8.8000  Si    1     SUB         0.000000
   1238  O        24.2500   28.0013    9.3500   O    1     SUB         0.000000
   1239  O        21.5555   28.0013    9.3500   O    1     SUB         0.000000
   1240  O        22.9027   30.3348    9.3500   O    1     SUB         0.000000
   1241  Si       22.9027   31.8904    9.9000  Si    1     SUB         0.000000
   1242  O        22.9027   31.8904   11.5500   O    1     SUB         0.000000
   1243  O        25.5972   33.4461    7.1500   O    1     SUB         0.000000
   1244  Si       25.5972   33.4461    0.0000  Si    1     SUB         0.000000
   1245  O        25.5972   35.0017    0.5500   O    1     SUB         0.000000
   1246  Si       25.5972   36.5573    1.1000  Si    1     SUB         0.000000
   1247  O        26.9444   32.6683    0.5500   O    1     SUB         0.000000
   1248  O        24.2500   32.6683    0.5500   O    1     SUB         0.000000
   1249  O        25.5972   36.5573    2.7500   O    1     SUB         0.000000
   1250  Si       25.5972   36.5573    4.4000  Si    1     SUB         0.000000
   1251  O        25.5972   35.0017    4.9500   O    1     SUB         0.000000
   1252  Si       25.5972   33.4461    5.5000  Si    1     SUB         0.000000
   1253  O        26.9444   32.6683    4.9500   O    1     SUB         0.000000
   1254  O        24.2500   32.6683    4.9500   O    1     SUB         0.000000
   1255  Si       25.5972   33.4461    8.8000  Si    1     SUB         0.000000
   1256  O        26.9444   32.6683    9.3500   O    1     SUB         0.000000
   1257  O        24.2500   32.6683    9.3500   O    1     SUB         0.000000
   1258  O        25.5972   35.0017    9.3500   O    1     SUB         0.000000
   1259  Si       25.5972   36.5573    9.9000  Si    1     SUB         0.000000
   1260  O        25.5972   36.5573   11.5500   O    1     SUB         0.000000
   1261  O        28.2916   28.7792    7.1500   O    1     SUB         0.000000
   1262  Si       28.2916   28.7792    0.0000  Si    1     SUB         0.000000
   1263  O        28.2916   30.3348    0.5500   O    1     SUB         0.000000
   1264  Si       28.2916   31.8904    1.1000  Si    1     SUB         0.000000
   1265  O        29.6388   28.0013    0.5500   O    1     SUB         0.000000
   1266  O        26.9444   28.0013    0.5500   O    1     SUB         0.000000
   1267  O        28.2916   31.8904    2.7500   O    1     SUB         0.000000
   1268  Si       28.2916   31.8904    4.4000  Si    1     SUB         0.000000
   1269  O        28.2916   30.3348    4.9500   O    1     SUB         0.000000
   1270  Si       28.2916   28.7792    5.5000  Si    1     SUB         0.000000
   1271  O        29.6388   28.0013    4.9500   O    1     SUB         0.000000
   1272  O        26.9444   28.0013    4.9500   O    1     SUB         0.000000
   1273  Si       28.2916   28.7792    8.8000  Si    1     SUB         0.000000
   1274  O        29.6388   28.0013    9.3500   O    1     SUB         0.000000
   1275  O        26.9444   28.0013    9.3500   O    1     SUB         0.000000
   1276  O        28.2916   30.3348    9.3500   O    1     SUB         0.000000
   1277  Si       28.2916   31.8904    9.9000  Si    1     SUB         0.000000
   1278  O        28.2916   31.8904   11.5500   O    1     SUB         0.000000
   1279  O        30.9861   33.4461    7.1500   O    1     SUB         0.000000
   1280  Si       30.9861   33.4461    0.0000  Si    1     SUB         0.000000
   1281  O        30.9861   35.0017    0.5500   O    1     SUB         0.000000
   1282  Si       30.9861   36.5573    1.1000  Si    1     SUB         0.000000
   1283  O        32.3333   32.6683    0.5500   O    1     SUB         0.000000
   1284  O        29.6388   32.6683    0.5500   O    1     SUB         0.000000
   1285  O        30.9861   36.5573    2.7500   O    1     SUB         0.000000
   1286  Si       30.9861   36.5573    4.4000  Si    1     SUB         0.000000
   1287  O        30.9861   35.0017    4.9500   O    1     SUB         0.000000
   1288  Si       30.9861   33.4461    5.5000  Si    1     SUB         0.000000
   1289  O        32.3333   32.6683    4.9500   O    1     SUB         0.000000
   1290  O        29.6388   32.6683    4.9500   O    1     SUB         0.000000
   1291  Si       30.9861   33.4461    8.8000  Si    1     SUB         0.000000
   1292  O        32.3333   32.6683    9.3500   O    1     SUB         0.000000
   1293  O        29.6388   32.6683    9.3500   O    1     SUB         0.000000
   1294  O        30.9861   35.0017    9.3500   O    1     SUB         0.000000
   1295  Si       30.9861   36.5573    9.9000  Si    1     SUB         0.000000
   1296  O        30.9861   36.5573   11.5500   O    1     SUB         0.000000
   1297  O        33.6805   28.7792    7.1500   O    1     SUB         0.000000
   1298  Si       33.6805   28.7792    0.0000  Si    1     SUB         0.000000
   1299  O        33.6805   30.3348    0.5500   O    1     SUB         0.000000
   1300  Si       33.6805   31.8904    1.1000  Si    1     SUB         0.000000
   1301  O        35.0277   28.0013    0.5500   O    1     SUB         0.000000
   1302  O        32.3333   28.0013    0.5500   O    1     SUB         0.000000
   1303  O        33.6805   31.8904    2.7500   O    1     SUB         0.000000
   1304  Si       33.6805   31.8904    4.4000  Si    1     SUB         0.000000
   1305  O        33.6805   30.3348    4.9500   O    1     SUB         0.000000
   1306  Si       33.6805   28.7792    5.5000  Si    1     SUB         0.000000
   1307  O        35.0277   28.0013    4.9500   O    1     SUB         0.000000
   1308  O        32.3333   28.0013    4.9500   O    1     SUB         0.000000
   1309  Si       33.6805   28.7792    8.8000  Si    1     SUB         0.000000
   1310  O        35.0277   28.0013    9.3500   O    1     SUB         0.000000
   1311  O        32.3333   28.0013    9.3500   O    1     SUB         0.000000
   1312  O        33.6805   30.3348    9.3500   O    1     SUB         0.000000
   1313  Si       33.6805   31.8904    9.9000  Si    1     SUB         0.000000
   1314  O        33.6805   31.8904   11.5500   O    1     SUB         0.000000
   1315  O        36.3749   33.4461    7.1500   O    1     SUB         0.000000
   1316  Si       36.3749   33.4461    0.0000  Si    1     SUB         0.000000
   1317  O        36.3749   35.0017    0.5500   O    1     SUB         0.000000
   1318  Si       36.3749   36.5573    1.1000  Si    1     SUB         0.000000
   1319  O        37.7222   32.6683    0.5500   O    1     SUB         0.000000
   1320  O        35.0277   32.6683    0.5500   O    1     SUB         0.000000
   1321  O        36.3749   36.5573    2.7500   O    1     SUB         0.000000
   1322  Si       36.3749   36.5573    4.4000  Si    1     SUB         0.000000
   1323  O        36.3749   35.0017    4.9500   O    1     SUB         0.000000
   1324  Si       36.3749   33.4461    5.5000  Si    1     SUB         0.000000
   1325  O        37.7222   32.6683    4.9500   O    1     SUB         0.000000
   1326  O        35.0277   32.6683    4.9500   O    1     SUB         0.000000
   1327  Si       36.3749   33.4461    8.8000  Si    1     SUB         0.000000
   1328  O        37.7222   32.6683    9.3500   O    1     SUB         0.000000
   1329  O        35.0277   32.6683    9.3500   O    1     SUB         0.000000
   1330  O        36.3749   35.0017    9.3500   O    1     SUB         0.000000
   1331  Si       36.3749   36.5573    9.9000  Si    1     SUB         0.000000
   1332  O        36.3749   36.5573   11.5500   O    1     SUB         0.000000
   1333  O        39.0694   28.7792    7.1500   O    1     SUB         0.000000
   1334  Si       39.0694   28.7792    0.0000  Si    1     SUB         0.000000
   1335  O        39.0694   30.3348    0.5500   O    1     SUB         0.000000
   1336  Si       39.0694   31.8904    1.1000  Si    1     SUB         0.000000
   1337  O        40.4166   28.0013    0.5500   O    1     SUB         0.000000
   1338  O        37.7222   28.0013    0.5500   O    1     SUB         0.000000
   1339  O        39.0694   31.8904    2.7500   O    1     SUB         0.000000
   1340  Si       39.0694   31.8904    4.4000  Si    1     SUB         0.000000
   1341  O        39.0694   30.3348    4.9500   O    1     SUB         0.000000
   1342  Si       39.0694   28.7792    5.5000  Si    1     SUB         0.000000
   1343  O        40.4166   28.0013    4.9500   O    1     SUB         0.000000
   1344  O        37.7222   28.0013    4.9500   O    1     SUB         0.000000
   1345  Si       39.0694   28.7792    8.8000  Si    1     SUB         0.000000
   1346  O        40.4166   28.0013    9.3500   O    1     SUB         0.000000
   1347  O        37.7222   28.0013    9.3500   O    1     SUB         0.000000
   1348  O        39.0694   30.3348    9.3500   O    1     SUB         0.000000
   1349  Si       39.0694   31.8904    9.9000  Si    1     SUB         0.000000
   1350  O        39.0694   31.8904   11.5500   O    1     SUB         0.000000
   1351  O        41.7638   33.4461    7.1500   O    1     SUB         0.000000
   1352  Si       41.7638   33.4461    0.0000  Si    1     SUB         0.000000
   1353  O        41.7638   35.0017    0.5500   O    1     SUB         0.000000
   1354  Si       41.7638   36.5573    1.1000  Si    1     SUB         0.000000
   1355  O        43.1110   32.6683    0.5500   O    1     SUB         0.000000
   1356  O        40.4166   32.6683    0.5500   O    1     SUB         0.000000
   1357  O        41.7638   36.5573    2.7500   O    1     SUB         0.000000
   1358  Si       41.7638   36.5573    4.4000  Si    1     SUB         0.000000
   1359  O        41.7638   35.0017    4.9500   O    1     SUB         0.000000
   1360  Si       41.7638   33.4461    5.5000  Si    1     SUB         0.000000
   1361  O        43.1110   32.6683    4.9500   O    1     SUB         0.000000
   1362  O        40.4166   32.6683    4.9500   O    1     SUB         0.000000
   1363  Si       41.7638   33.4461    8.8000  Si    1     SUB         0.000000
   1364  O        43.1110   32.6683    9.3500   O    1     SUB         0.000000
   1365  O        40.4166   32.6683    9.3500   O    1     SUB         0.000000
   1366  O        41.7638   35.0017    9.3500   O    1     SUB         0.000000
   1367  Si       41.7638   36.5573    9.9000  Si    1     SUB         0.000000
   1368  O        41.7638   36.5573   11.5500   O    1     SUB         0.000000
   1369  O        44.4583   28.7792    7.1500   O    1     SUB         0.000000
   1370  Si       44.4583   28.7792    0.0000  Si    1     SUB         0.000000
   1371  O        44.4583   30.3348    0.5500   O    1     SUB         0.000000
   1372  Si       44.4583   31.8904    1.1000  Si    1     SUB         0.000000
   1373  O        45.8055   28.0013    0.5500   O    1     SUB         0.000000
   1374  O        43.1110   28.0013    0.5500   O    1     SUB         0.000000
   1375  O        44.4583   31.8904    2.7500   O    1     SUB         0.000000
   1376  Si       44.4583   31.8904    4.4000  Si    1     SUB         0.000000
   1377  O        44.4583   30.3348    4.9500   O    1     SUB         0.000000
   1378  Si       44.4583   28.7792    5.5000  Si    1     SUB         0.000000
   1379  O        45.8055   28.0013    4.9500   O    1     SUB         0.000000
   1380  O        43.1110   28.0013    4.9500   O    1     SUB         0.000000
   1381  Si       44.4583   28.7792    8.8000  Si    1     SUB         0.000000
   1382  O        45.8055   28.0013    9.3500   O    1     SUB         0.000000
   1383  O        43.1110   28.0013    9.3500   O    1     SUB         0.000000
   1384  O        44.4583   30.3348    9.3500   O    1     SUB         0.000000
   1385  Si       44.4583   31.8904    9.9000  Si    1     SUB         0.000000
   1386  O        44.4583   31.8904   11.5500   O    1     SUB         0.000000
   1387  O        47.1527   33.4461    7.1500   O    1     SUB         0.000000
   1388  Si       47.1527   33.4461    0.0000  Si    1     SUB         0.000000
   1389  O        47.1527   35.0017    0.5500   O    1     SUB         0.000000
   1390  Si       47.1527   36.5573    1.1000  Si    1     SUB         0.000000
   1391  O        48.4999   32.6683    0.5500   O    1     SUB         0.000000
   1392  O        45.8055   32.6683    0.5500   O    1     SUB         0.000000
   1393  O        47.1527   36.5573    2.7500   O    1     SUB         0.000000
   1394  Si       47.1527   36.5573    4.4000  Si    1     SUB         0.000000
   1395  O        47.1527   35.0017    4.9500   O    1     SUB         0.000000
   1396  Si       47.1527   33.4461    5.5000  Si    1     SUB         0.000000
   1397  O        48.4999   32.6683    4.9500   O    1     SUB         0.000000
   1398  O        45.8055   32.6683    4.9500   O    1     SUB         0.000000
   1399  Si       47.1527   33.4461    8.8000  Si    1     SUB         0.000000
   1400  O        48.4999   32.6683    9.3500   O    1     SUB         0.000000
   1401  O        45.8055   32.6683    9.3500   O    1     SUB         0.000000
   1402  O        47.1527   35.0017    9.3500   O    1     SUB         0.000000
   1403  Si       47.1527   36.5573    9.9000  Si    1     SUB         0.000000
   1404  O        47.1527   36.5573   11.5500   O    1     SUB         0.000000
   1405  O        49.8471   28.7792    7.1500   O    1     SUB         0.000000
   1406  Si       49.8471   28.7792    0.0000  Si    1     SUB         0.000000
   1407  O        49.8471   30.3348    0.5500   O    1     SUB         0.000000
   1408  Si       49.8471   31.8904    1.1000  Si    1     SUB         0.000000
   1409  O        51.1944   28.0013    0.5500   O    1     SUB         0.000000
   1410  O        48.4999   28.0013    0.5500   O    1     SUB         0.000000
   1411  O        49.8471   31.8904    2.7500   O    1     SUB         0.000000
   1412  Si       49.8471   31.8904    4.4000  Si    1     SUB         0.000000
   1413  O        49.8471   30.3348    4.9500   O    1     SUB         0.000000
   1414  Si       49.8471   28.7792    5.5000  Si    1     SUB         0.000000
   1415  O        51.1944   28.0013    4.9500   O    1     SUB         0.000000
   1416  O        48.4999   28.0013    4.9500   O    1     SUB         0.000000
   1417  Si       49.8471   28.7792    8.8000  Si    1     SUB         0.000000
   1418  O        51.1944   28.0013    9.3500   O    1     SUB         0.000000
   1419  O        48.4999   28.0013    9.3500   O    1     SUB         0.000000
   1420  O        49.8471   30.3348    9.3500   O    1     SUB         0.000000
   1421  Si       49.8471   31.8904    9.9000  Si    1     SUB         0.000000
   1422  O        49.8471   31.8904   11.5500   O    1     SUB         0.000000
   1423  O        52.5416   33.4461    7.1500   O    1     SUB         0.000000
   1424  Si       52.5416   33.4461    0.0000  Si    1     SUB         0.000000
   1425  O        52.5416   35.0017    0.5500   O    1     SUB         0.000000
   1426  Si       52.5416   36.5573    1.1000  Si    1     SUB         0.000000
   1427  O        53.8888   32.6683    0.5500   O    1     SUB         0.000000
   1428  O        51.1944   32.6683    0.5500   O    1     SUB         0.000000
   1429  O        52.5416   36.5573    2.7500   O    1     SUB         0.000000
   1430  Si       52.5416   36.5573    4.4000  Si    1     SUB         0.000000
   1431  O        52.5416   35.0017    4.9500   O    1     SUB         0.000000
   1432  Si       52.5416   33.4461    5.5000  Si    1     SUB         0.000000
   1433  O        53.8888   32.6683    4.9500   O    1     SUB         0.000000
   1434  O        51.1944   32.6683    4.9500   O    1     SUB         0.000000
   1435  Si       52.5416   33.4461    8.8000  Si    1     SUB         0.000000
   1436  O        53.8888   32.6683    9.3500   O    1     SUB         0.000000
   1437  O        51.1944   32.6683    9.3500   O    1     SUB         0.000000
   1438  O        52.5416   35.0017    9.3500   O    1     SUB         0.000000
   1439  Si       52.5416   36.5573    9.9000  Si    1     SUB         0.000000
   1440  O        52.5416   36.5573   11.5500   O    1     SUB         0.000000
   1441  O         1.3472   38.1129    7.1500   O    1     SUB         0.000000
   1442  Si        1.3472   38.1129    0.0000  Si    1     SUB         0.000000
   1443  O         1.3472   39.6686    0.5500   O    1     SUB         0.000000
   1444  Si        1.3472   41.2242    1.1000  Si    1     SUB         0.000000
   1445  O         2.6944   37.3351    0.5500   O    1     SUB         0.000000
   1446  O         0.0000   37.3351    0.5500   O    1     SUB         0.000000
   1447  O         1.3472   41.2242    2.7500   O    1     SUB         0.000000
   1448  Si        1.3472   41.2242    4.4000  Si    1     SUB         0.000000
   1449  O         1.3472   39.6686    4.9500   O    1     SUB         0.000000
   1450  Si        1.3472   38.1129    5.5000  Si    1     SUB         0.000000
   1451  O         2.6944   37.3351    4.9500   O    1     SUB         0.000000
   1452  O         0.0000   37.3351    4.9500   O    1     SUB         0.000000
   1453  Si        1.3472   38.1129    8.8000  Si    1     SUB         0.000000
   1454  O         2.6944   37.3351    9.3500   O    1     SUB         0.000000
   1455  O         0.0000   37.3351    9.3500   O    1     SUB         0.000000
   1456  O         1.3472   39.6686    9.3500   O    1     SUB         0.000000
   1457  Si        1.3472   41.2242    9.9000  Si    1     SUB         0.000000
   1458  O         1.3472   41.2242   11.5500   O    1     SUB         0.000000
   1459  O         4.0417   42.7799    7.1500   O    1     SUB         0.000000
   1460  Si        4.0417   42.7799    0.0000  Si    1     SUB         0.000000
   1461  O         4.0417   44.3355    0.5500   O    1     SUB         0.000000
   1462  Si        4.0417   45.8911    1.1000  Si    1     SUB         0.000000
   1463  O         5.3889   42.0020    0.5500   O    1     SUB         0.000000
   1464  O         2.6944   42.0020    0.5500   O    1     SUB         0.000000
   1465  O         4.0417   45.8911    2.7500   O    1     SUB         0.000000
   1466  Si        4.0417   45.8911    4.4000  Si    1     SUB         0.000000
   1467  O         4.0417   44.3355    4.9500   O    1     SUB         0.000000
   1468  Si        4.0417   42.7799    5.5000  Si    1     SUB         0.000000
   1469  O         5.3889   42.0020    4.9500   O    1     SUB         0.000000
   1470  O         2.6944   42.0020    4.9500   O    1     SUB         0.000000
   1471  Si        4.0417   42.7799    8.8000  Si    1     SUB         0.000000
   1472  O         5.3889   42.0020    9.3500   O    1     SUB         0.000000
   1473  O         2.6944   42.0020    9.3500   O    1     SUB         0.000000
   1474  O         4.0417   44.3355    9.3500   O    1     SUB         0.000000
   1475  Si        4.0417   45.8911    9.9000  Si    1     SUB         0.000000
   1476  O         4.0417   45.8911   11.5500   O    1     SUB         0.000000
   1477  O         6.7361   38.1129    7.1500   O    1     SUB         0.000000
   1478  Si        6.7361   38.1129    0.0000  Si    1     SUB         0.000000
   1479  O         6.7361   39.6686    0.5500   O    1     SUB         0.000000
   1480  Si        6.7361   41.2242    1.1000  Si    1     SUB         0.000000
   1481  O         8.0833   37.3351    0.5500   O    1     SUB         0.000000
   1482  O         5.3889   37.3351    0.5500   O    1     SUB         0.000000
   1483  O         6.7361   41.2242    2.7500   O    1     SUB         0.000000
   1484  Si        6.7361   41.2242    4.4000  Si    1     SUB         0.000000
   1485  O         6.7361   39.6686    4.9500   O    1     SUB         0.000000
   1486  Si        6.7361   38.1129    5.5000  Si    1     SUB         0.000000
   1487  O         8.0833   37.3351    4.9500   O    1     SUB         0.000000
   1488  O         5.3889   37.3351    4.9500   O    1     SUB         0.000000
   1489  Si        6.7361   38.1129    8.8000  Si    1     SUB         0.000000
   1490  O         8.0833   37.3351    9.3500   O    1     SUB         0.000000
   1491  O         5.3889   37.3351    9.3500   O    1     SUB         0.000000
   1492  O         6.7361   39.6686    9.3500   O    1     SUB         0.000000
   1493  Si        6.7361   41.2242    9.9000  Si    1     SUB         0.000000
   1494  O         6.7361   41.2242   11.5500   O    1     SUB         0.000000
   1495  O         9.4305   42.7799    7.1500   O    1     SUB         0.000000
   1496  Si        9.4305   42.7799    0.0000  Si    1     SUB         0.000000
   1497  O         9.4305   44.3355    0.5500   O    1     SUB         0.000000
   1498  Si        9.4305   45.8911    1.1000  Si    1     SUB         0.000000
   1499  O        10.7778   42.0020    0.5500   O    1     SUB         0.000000
   1500  O         8.0833   42.0020    0.5500   O    1     SUB         0.000000
   1501  O         9.4305   45.8911    2.7500   O    1     SUB         0.000000
   1502  Si        9.4305   45.8911    4.4000  Si    1     SUB         0.000000
   1503  O         9.4305   44.3355    4.9500   O    1     SUB         0.000000
   1504  Si        9.4305   42.7799    5.5000  Si    1     SUB         0.000000
   1505  O        10.7778   42.0020    4.9500   O    1     SUB         0.000000
   1506  O         8.0833   42.0020    4.9500   O    1     SUB         0.000000
   1507  Si        9.4305   42.7799    8.8000  Si    1     SUB         0.000000
   1508  O        10.7778   42.0020    9.3500   O    1     SUB         0.000000
   1509  O         8.0833   42.0020    9.3500   O    1     SUB         0.000000
   1510  O         9.4305   44.3355    9.3500   O    1     SUB         0.000000
   1511  Si        9.4305   45.8911    9.9000  Si    1     SUB         0.000000
   1512  O         9.4305   45.8911   11.5500   O    1     SUB         0.000000
   1513  O        12.1250   38.1129    7.1500   O    1     SUB         0.000000
   1514  Si       12.1250   38.1129    0.0000  Si    1     SUB         0.000000
   1515  O        12.1250   39.6686    0.5500   O    1     SUB         0.000000
   1516  Si       12.1250   41.2242    1.1000  Si    1     SUB         0.000000
   1517  O        13.4722   37.3351    0.5500   O    1     SUB         0.000000
   1518  O        10.7778   37.3351    0.5500   O    1     SUB         0.000000
   1519  O        12.1250   41.2242    2.7500   O    1     SUB         0.000000
   1520  Si       12.1250   41.2242    4.4000  Si    1     SUB         0.000000
   1521  O        12.1250   39.6686    4.9500   O    1     SUB         0.000000
   1522  Si       12.1250   38.1129    5.5000  Si    1     SUB         0.000000
   1523  O        13.4722   37.3351    4.9500   O    1     SUB         0.000000
   1524  O        10.7778   37.3351    4.9500   O    1     SUB         0.000000
   1525  Si       12.1250   38.1129    8.8000  Si    1     SUB         0.000000
   1526  O        13.4722   37.3351    9.3500   O    1     SUB         0.000000
   1527  O        10.7778   37.3351    9.3500   O    1     SUB         0.000000
   1528  O        12.1250   39.6686    9.3500   O    1     SUB         0.000000
   1529  Si       12.1250   41.2242    9.9000  Si    1     SUB         0.000000
   1530  O        12.1250   41.2242   11.5500   O    1     SUB         0.000000
   1531  O        14.8194   42.7799    7.1500   O    1     SUB         0.000000
   1532  Si       14.8194   42.7799    0.0000  Si    1     SUB         0.000000
   1533  O        14.8194   44.3355    0.5500   O    1     SUB         0.000000
   1534  Si       14.8194   45.8911    1.1000  Si    1     SUB         0.000000
   1535  O        16.1666   42.0020    0.5500   O    1     SUB         0.000000
   1536  O        13.4722   42.0020    0.5500   O    1     SUB         0.000000
   1537  O        14.8194   45.8911    2.7500   O    1     SUB         0.000000
   1538  Si       14.8194   45.8911    4.4000  Si    1     SUB         0.000000
   1539  O        14.8194   44.3355    4.9500   O    1     SUB         0.000000
   1540  Si       14.8194   42.7799    5.5000  Si    1     SUB         0.000000
   1541  O        16.1666   42.0020    4.9500   O    1     SUB         0.000000
   1542  O        13.4722   42.0020    4.9500   O    1     SUB         0.000000
   1543  Si       14.8194   42.7799    8.8000  Si    1     SUB         0.000000
   1544  O        16.1666   42.0020    9.3500   O    1     SUB         0.000000
   1545  O        13.4722   42.0020    9.3500   O    1     SUB         0.000000
   1546  O        14.8194   44.3355    9.3500   O    1     SUB         0.000000
   1547  Si       14.8194   45.8911    9.9000  Si    1     SUB         0.000000
   1548  O        14.8194   45.8911   11.5500   O    1     SUB         0.000000
   1549  O        17.5139   38.1129    7.1500   O    1     SUB         0.000000
   1550  Si       17.5139   38.1129    0.0000  Si    1     SUB         0.000000
   1551  O        17.5139   39.6686    0.5500   O    1     SUB         0.000000
   1552  Si       17.5139   41.2242    1.1000  Si    1     SUB         0.000000
   1553  O        18.8611   37.3351    0.5500   O    1     SUB         0.000000
   1554  O        16.1666   37.3351    0.5500   O    1     SUB         0.000000
   1555  O        17.5139   41.2242    2.7500   O    1     SUB         0.000000
   1556  Si       17.5139   41.2242    4.4000  Si    1     SUB         0.000000
   1557  O        17.5139   39.6686    4.9500   O    1     SUB         0.000000
   1558  Si       17.5139   38.1129    5.5000  Si    1     SUB         0.000000
   1559  O        18.8611   37.3351    4.9500   O    1     SUB         0.000000
   1560  O        16.1666   37.3351    4.9500   O    1     SUB         0.000000
   1561  Si       17.5139   38.1129    8.8000  Si    1     SUB         0.000000
   1562  O        18.8611   37.3351    9.3500   O    1     SUB         0.000000
   1563  O        16.1666   37.3351    9.3500   O    1     SUB         0.000000
   1564  O        17.5139   39.6686    9.3500   O    1     SUB         0.000000
   1565  Si       17.5139   41.2242    9.9000  Si    1     SUB         0.000000
   1566  O        17.5139   41.2242   11.5500   O    1     SUB         0.000000
   1567  O        20.2083   42.7799    7.1500   O    1     SUB         0.000000
   1568  Si       20.2083   42.7799    0.0000  Si    1     SUB         0.000000
   1569  O        20.2083   44.3355    0.5500   O    1     SUB         0.000000
   1570  Si       20.2083   45.8911    1.1000  Si    1     SUB         0.000000
   1571  O        21.5555   42.0020    0.5500   O    1     SUB         0.000000
   1572  O        18.8611   42.0020    0.5500   O    1     SUB         0.000000
   1573  O        20.2083   45.8911    2.7500   O    1     SUB         0.000000
   1574  Si       20.2083   45.8911    4.4000  Si    1     SUB         0.000000
   1575  O        20.2083   44.3355    4.9500   O    1     SUB         0.000000
   1576  Si       20.2083   42.7799    5.5000  Si    1     SUB         0.000000
   1577  O        21.5555   42.0020    4.9500   O    1     SUB         0.000000
   1578  O        18.8611   42.0020    4.9500   O    1     SUB         0.000000
   1579  Si       20.2083   42.7799    8.8000  Si    1     SUB         0.000000
   1580  O        21.5555   42.0020    9.3500   O    1     SUB         0.000000
   1581  O        18.8611   42.0020    9.3500   O    1     SUB         0.000000
   1582  O        20.2083   44.3355    9.3500   O    1     SUB         0.000000
   1583  Si       20.2083   45.8911    9.9000  Si    1     SUB         0.000000
   1584  O        20.2083   45.8911   11.5500   O    1     SUB         0.000000
   1585  O        22.9027   38.1129    7.1500   O    1     SUB         0.000000
   1586  Si       22.9027   38.1129    0.0000  Si    1     SUB         0.000000
   1587  O        22.9027   39.6686    0.5500   O    1     SUB         0.000000
   1588  Si       22.9027   41.2242    1.1000  Si    1     SUB         0.000000
   1589  O        24.2500   37.3351    0.5500   O    1     SUB         0.000000
   1590  O        21.5555   37.3351    0.5500   O    1     SUB         0.000000
   1591  O        22.9027   41.2242    2.7500   O    1     SUB         0.000000
   1592  Si       22.9027   41.2242    4.4000  Si    1     SUB         0.000000
   1593  O        22.9027   39.6686    4.9500   O    1     SUB         0.000000
   1594  Si       22.9027   38.1129    5.5000  Si    1     SUB         0.000000
   1595  O        24.2500   37.3351    4.9500   O    1     SUB         0.000000
   1596  O        21.5555   37.3351    4.9500   O    1     SUB         0.000000
   1597  Si       22.9027   38.1129    8.8000  Si    1     SUB         0.000000
   1598  O        24.2500   37.3351    9.3500   O    1     SUB         0.000000
   1599  O        21.5555   37.3351    9.3500   O    1     SUB         0.000000
   1600  O        22.9027   39.6686    9.3500   O    1     SUB         0.000000
   1601  Si       22.9027   41.2242    9.9000  Si    1     SUB         0.000000
   1602  O        22.9027   41.2242   11.5500   O    1     SUB         0.000000
   1603  O        25.5972   42.7799    7.1500   O    1     SUB         0.000000
   1604  Si       25.5972   42.7799    0.0000  Si    1     SUB         0.000000
   1605  O        25.5972   44.3355    0.5500   O    1     SUB         0.000000
   1606  Si       25.5972   45.8911    1.1000  Si    1     SUB         0.000000
   1607  O        26.9444   42.0020    0.5500   O    1     SUB         0.000000
   1608  O        24.2500   42.0020    0.5500   O    1     SUB         0.000000
   1609  O        25.5972   45.8911    2.7500   O    1     SUB         0.000000
   1610  Si       25.5972   45.8911    4.4000  Si    1     SUB         0.000000
   1611  O        25.5972   44.3355    4.9500   O    1     SUB         0.000000
   1612  Si       25.5972   42.7799    5.5000  Si    1     SUB         0.000000
   1613  O        26.9444   42.0020    4.9500   O    1     SUB         0.000000
   1614  O        24.2500   42.0020    4.9500   O    1     SUB         0.000000
   1615  Si       25.5972   42.7799    8.8000  Si    1     SUB         0.000000
   1616  O        26.9444   42.0020    9.3500   O    1     SUB         0.000000
   1617  O        24.2500   42.0020    9.3500   O    1     SUB         0.000000
   1618  O        25.5972   44.3355    9.3500   O    1     SUB         0.000000
   1619  Si       25.5972   45.8911    9.9000  Si    1     SUB         0.000000
   1620  O        25.5972   45.8911   11.5500   O    1     SUB         0.000000
   1621  O        28.2916   38.1129    7.1500   O    1     SUB         0.000000
   1622  Si       28.2916   38.1129    0.0000  Si    1     SUB         0.000000
   1623  O        28.2916   39.6686    0.5500   O    1     SUB         0.000000
   1624  Si       28.2916   41.2242    1.1000  Si    1     SUB         0.000000
   1625  O        29.6388   37.3351    0.5500   O    1     SUB         0.000000
   1626  O        26.9444   37.3351    0.5500   O    1     SUB         0.000000
   1627  O        28.2916   41.2242    2.7500   O    1     SUB         0.000000
   1628  Si       28.2916   41.2242    4.4000  Si    1     SUB         0.000000
   1629  O        28.2916   39.6686    4.9500   O    1     SUB         0.000000
   1630  Si       28.2916   38.1129    5.5000  Si    1     SUB         0.000000
   1631  O        29.6388   37.3351    4.9500   O    1     SUB         0.000000
   1632  O        26.9444   37.3351    4.9500   O    1     SUB         0.000000
   1633  Si       28.2916   38.1129    8.8000  Si    1     SUB         0.000000
   1634  O        29.6388   37.3351    9.3500   O    1     SUB         0.000000
   1635  O        26.9444   37.3351    9.3500   O    1     SUB         0.000000
   1636  O        28.2916   39.6686    9.3500   O    1     SUB         0.000000
   1637  Si       28.2916   41.2242    9.9000  Si    1     SUB         0.000000
   1638  O        28.2916   41.2242   11.5500   O    1     SUB         0.000000
   1639  O        30.9861   42.7799    7.1500   O    1     SUB         0.000000
   1640  Si       30.9861   42.7799    0.0000  Si    1     SUB         0.000000
   1641  O        30.9861   44.3355    0.5500   O    1     SUB         0.000000
   1642  Si       30.9861   45.8911    1.1000  Si    1     SUB         0.000000
   1643  O        32.3333   42.0020    0.5500   O    1     SUB         0.000000
   1644  O        29.6388   42.0020    0.5500   O    1     SUB         0.000000
   1645  O        30.9861   45.8911    2.7500   O    1     SUB         0.000000
   1646  Si       30.9861   45.8911    4.4000  Si    1     SUB         0.000000
   1647  O        30.9861   44.3355    4.9500   O    1     SUB         0.000000
   1648  Si       30.9861   42.7799    5.5000  Si    1     SUB         0.000000
   1649  O        32.3333   42.0020    4.9500   O    1     SUB         0.000000
   1650  O        29.6388   42.0020    4.9500   O    1     SUB         0.000000
   1651  Si       30.9861   42.7799    8.8000  Si    1     SUB         0.000000
   1652  O        32.3333   42.0020    9.3500   O    1     SUB         0.000000
   1653  O        29.6388   42.0020    9.3500   O    1     SUB         0.000000
   1654  O        30.9861   44.3355    9.3500   O    1     SUB         0.000000
   1655  Si       30.9861   45.8911    9.9000  Si    1     SUB         0.000000
   1656  O        30.9861   45.8911   11.5500   O    1     SUB         0.000000
   1657  O        33.6805   38.1129    7.1500   O    1     SUB         0.000000
   1658  Si       33.6805   38.1129    0.0000  Si    1     SUB         0.000000
   1659  O        33.6805   39.6686    0.5500   O    1     SUB         0.000000
   1660  Si       33.6805   41.2242    1.1000  Si    1     SUB         0.000000
   1661  O        35.0277   37.3351    0.5500   O    1     SUB         0.000000
   1662  O        32.3333   37.3351    0.5500   O    1     SUB         0.000000
   1663  O        33.6805   41.2242    2.7500   O    1     SUB         0.000000
   1664  Si       33.6805   41.2242    4.4000  Si    1     SUB         0.000000
   1665  O        33.6805   39.6686    4.9500   O    1     SUB         0.000000
   1666  Si       33.6805   38.1129    5.5000  Si    1     SUB         0.000000
   1667  O        35.0277   37.3351    4.9500   O    1     SUB         0.000000
   1668  O        32.3333   37.3351    4.9500   O    1     SUB         0.000000
   1669  Si       33.6805   38.1129    8.8000  Si    1     SUB         0.000000
   1670  O        35.0277   37.3351    9.3500   O    1     SUB         0.000000
   1671  O        32.3333   37.3351    9.3500   O    1     SUB         0.000000
   1672  O        33.6805   39.6686    9.3500   O    1     SUB         0.000000
   1673  Si       33.6805   41.2242    9.9000  Si    1     SUB         0.000000
   1674  O        33.6805   41.2242   11.5500   O    1     SUB         0.000000
   1675  O        36.3749   42.7799    7.1500   O    1     SUB         0.000000
   1676  Si       36.3749   42.7799    0.0000  Si    1     SUB         0.000000
   1677  O        36.3749   44.3355    0.5500   O    1     SUB         0.000000
   1678  Si       36.3749   45.8911    1.1000  Si    1     SUB         0.000000
   1679  O        37.7222   42.0020    0.5500   O    1     SUB         0.000000
   1680  O        35.0277   42.0020    0.5500   O    1     SUB         0.000000
   1681  O        36.3749   45.8911    2.7500   O    1     SUB         0.000000
   1682  Si       36.3749   45.8911    4.4000  Si    1     SUB         0.000000
   1683  O        36.3749   44.3355    4.9500   O    1     SUB         0.000000
   1684  Si       36.3749   42.7799    5.5000  Si    1     SUB         0.000000
   1685  O        37.7222   42.0020    4.9500   O    1     SUB         0.000000
   1686  O        35.0277   42.0020    4.9500   O    1     SUB         0.000000
   1687  Si       36.3749   42.7799    8.8000  Si    1     SUB         0.000000
   1688  O        37.7222   42.0020    9.3500   O    1     SUB         0.000000
   1689  O        35.0277   42.0020    9.3500   O    1     SUB         0.000000
   1690  O        36.3749   44.3355    9.3500   O    1     SUB         0.000000
   1691  Si       36.3749   45.8911    9.9000  Si    1     SUB         0.000000
   1692  O        36.3749   45.8911   11.5500   O    1     SUB         0.000000
   1693  O        39.0694   38.1129    7.1500   O    1     SUB         0.000000
   1694  Si       39.0694   38.1129    0.0000  Si    1     SUB         0.000000
   1695  O        39.0694   39.6686    0.5500   O    1     SUB         0.000000
   1696  Si       39.0694   41.2242    1.1000  Si    1     SUB         0.000000
   1697  O        40.4166   37.3351    0.5500   O    1     SUB         0.000000
   1698  O        37.7222   37.3351    0.5500   O    1     SUB         0.000000
   1699  O        39.0694   41.2242    2.7500   O    1     SUB         0.000000
   1700  Si       39.0694   41.2242    4.4000  Si    1     SUB         0.000000
   1701  O        39.0694   39.6686    4.9500   O    1     SUB         0.000000
   1702  Si       39.0694   38.1129    5.5000  Si    1     SUB         0.000000
   1703  O        40.4166   37.3351    4.9500   O    1     SUB         0.000000
   1704  O        37.7222   37.3351    4.9500   O    1     SUB         0.000000
   1705  Si       39.0694   38.1129    8.8000  Si    1     SUB         0.000000
   1706  O        40.4166   37.3351    9.3500   O    1     SUB         0.000000
   1707  O        37.7222   37.3351    9.3500   O    1     SUB         0.000000
   1708  O        39.0694   39.6686    9.3500   O    1     SUB         0.000000
   1709  Si       39.0694   41.2242    9.9000  Si    1     SUB         0.000000
   1710  O        39.0694   41.2242   11.5500   O    1     SUB         0.000000
   1711  O        41.7638   42.7799    7.1500   O    1     SUB         0.000000
   1712  Si       41.7638   42.7799    0.0000  Si    1     SUB         0.000000
   1713  O        41.7638   44.3355    0.5500   O    1     SUB         0.000000
   1714  Si       41.7638   45.8911    1.1000  Si    1     SUB         0.000000
   1715  O        43.1110   42.0020    0.5500   O    1     SUB         0.000000
   1716  O        40.4166   42.0020    0.5500   O    1     SUB         0.000000
   1717  O        41.7638   45.8911    2.7500   O    1     SUB         0.000000
   1718  Si       41.7638   45.8911    4.4000  Si    1     SUB         0.000000
   1719  O        41.7638   44.3355    4.9500   O    1     SUB         0.000000
   1720  Si       41.7638   42.7799    5.5000  Si    1     SUB         0.000000
   1721  O        43.1110   42.0020    4.9500   O    1     SUB         0.000000
   1722  O        40.4166   42.0020    4.9500   O    1     SUB         0.000000
   1723  Si       41.7638   42.7799    8.8000  Si    1     SUB         0.000000
   1724  O        43.1110   42.0020    9.3500   O    1     SUB         0.000000
   1725  O        40.4166   42.0020    9.3500   O    1     SUB         0.000000
   1726  O        41.7638   44.3355    9.3500   O    1     SUB         0.000000
   1727  Si       41.7638   45.8911    9.9000  Si    1     SUB         0.000000
   1728  O        41.7638   45.8911   11.5500   O    1     SUB         0.000000
   1729  O        44.4583   38.1129    7.1500   O    1     SUB         0.000000
   1730  Si       44.4583   38.1129    0.0000  Si    1     SUB         0.000000
   1731  O        44.4583   39.6686    0.5500   O    1     SUB         0.000000
   1732  Si       44.4583   41.2242    1.1000  Si    1     SUB         0.000000
   1733  O        45.8055   37.3351    0.5500   O    1     SUB         0.000000
   1734  O        43.1110   37.3351    0.5500   O    1     SUB         0.000000
   1735  O        44.4583   41.2242    2.7500   O    1     SUB         0.000000
   1736  Si       44.4583   41.2242    4.4000  Si    1     SUB         0.000000
   1737  O        44.4583   39.6686    4.9500   O    1     SUB         0.000000
   1738  Si       44.4583   38.1129    5.5000  Si    1     SUB         0.000000
   1739  O        45.8055   37.3351    4.9500   O    1     SUB         0.000000
   1740  O        43.1110   37.3351    4.9500   O    1     SUB         0.000000
   1741  Si       44.4583   38.1129    8.8000  Si    1     SUB         0.000000
   1742  O        45.8055   37.3351    9.3500   O    1     SUB         0.000000
   1743  O        43.1110   37.3351    9.3500   O    1     SUB         0.000000
   1744  O        44.4583   39.6686    9.3500   O    1     SUB         0.000000
   1745  Si       44.4583   41.2242    9.9000  Si    1     SUB         0.000000
   1746  O        44.4583   41.2242   11.5500   O    1     SUB         0.000000
   1747  O        47.1527   42.7799    7.1500   O    1     SUB         0.000000
   1748  Si       47.1527   42.7799    0.0000  Si    1     SUB         0.000000
   1749  O        47.1527   44.3355    0.5500   O    1     SUB         0.000000
   1750  Si       47.1527   45.8911    1.1000  Si    1     SUB         0.000000
   1751  O        48.4999   42.0020    0.5500   O    1     SUB         0.000000
   1752  O        45.8055   42.0020    0.5500   O    1     SUB         0.000000
   1753  O        47.1527   45.8911    2.7500   O    1     SUB         0.000000
   1754  Si       47.1527   45.8911    4.4000  Si    1     SUB         0.000000
   1755  O        47.1527   44.3355    4.9500   O    1     SUB         0.000000
   1756  Si       47.1527   42.7799    5.5000  Si    1     SUB         0.000000
   1757  O        48.4999   42.0020    4.9500   O    1     SUB         0.000000
   1758  O        45.8055   42.0020    4.9500   O    1     SUB         0.000000
   1759  Si       47.1527   42.7799    8.8000  Si    1     SUB         0.000000
   1760  O        48.4999   42.0020    9.3500   O    1     SUB         0.000000
   1761  O        45.8055   42.0020    9.3500   O    1     SUB         0.000000
   1762  O        47.1527   44.3355    9.3500   O    1     SUB         0.000000
   1763  Si       47.1527   45.8911    9.9000  Si    1     SUB         0.000000
   1764  O        47.1527   45.8911   11.5500   O    1     SUB         0.000000
   1765  O        49.8471   38.1129    7.1500   O    1     SUB         0.000000
   1766  Si       49.8471   38.1129    0.0000  Si    1     SUB         0.000000
   1767  O        49.8471   39.6686    0.5500   O    1     SUB         0.000000
   1768  Si       49.8471   41.2242    1.1000  Si    1     SUB         0.000000
   1769  O        51.1944   37.3351    0.5500   O    1     SUB         0.000000
   1770  O        48.4999   37.3351    0.5500   O    1     SUB         0.000000
   1771  O        49.8471   41.2242    2.7500   O    1     SUB         0.000000
   1772  Si       49.8471   41.2242    4.4000  Si    1     SUB         0.000000
   1773  O        49.8471   39.6686    4.9500   O    1     SUB         0.000000
   1774  Si       49.8471   38.1129    5.5000  Si    1     SUB         0.000000
   1775  O        51.1944   37.3351    4.9500   O    1     SUB         0.000000
   1776  O        48.4999   37.3351    4.9500   O    1     SUB         0.000000
   1777  Si       49.8471   38.1129    8.8000  Si    1     SUB         0.000000
   1778  O        51.1944   37.3351    9.3500   O    1     SUB         0.000000
   1779  O        48.4999   37.3351    9.3500   O    1     SUB         0.000000
   1780  O        49.8471   39.6686    9.3500   O    1     SUB         0.000000
   1781  Si       49.8471   41.2242    9.9000  Si    1     SUB         0.000000
   1782  O        49.8471   41.2242   11.5500   O    1     SUB         0.000000
   1783  O        52.5416   42.7799    7.1500   O    1     SUB         0.000000
   1784  Si       52.5416   42.7799    0.0000  Si    1     SUB         0.000000
   1785  O        52.5416   44.3355    0.5500   O    1     SUB         0.000000
   1786  Si       52.5416   45.8911    1.1000  Si    1     SUB         0.000000
   1787  O        53.8888   42.0020    0.5500   O    1     SUB         0.000000
   1788  O        51.1944   42.0020    0.5500   O    1     SUB         0.000000
   1789  O        52.5416   45.8911    2.7500   O    1     SUB         0.000000
   1790  Si       52.5416   45.8911    4.4000  Si    1     SUB         0.000000
   1791  O        52.5416   44.3355    4.9500   O    1     SUB         0.000000
   1792  Si       52.5416   42.7799    5.5000  Si    1     SUB         0.000000
   1793  O        53.8888   42.0020    4.9500   O    1     SUB         0.000000
   1794  O        51.1944   42.0020    4.9500   O    1     SUB         0.000000
   1795  Si       52.5416   42.7799    8.8000  Si    1     SUB         0.000000
   1796  O        53.8888   42.0020    9.3500   O    1     SUB         0.000000
   1797  O        51.1944   42.0020    9.3500   O    1     SUB         0.000000
   1798  O        52.5416   44.3355    9.3500   O    1     SUB         0.000000
   1799  Si       52.5416   45.8911    9.9000  Si    1     SUB         0.000000
   1800  O        52.5416   45.8911   11.5500   O    1     SUB         0.000000
@<TRIPOS>BOND
1		1	10       1
2		1	13       1
3		2	3        1
4		2	5        1
5		2	6        1
6		3	4        1
7		4	7        1
8		4	24       1
9		4	347      1
10		5	1462     1
11		6	1786     1
12		7	8        1
13		8	9        1
14		8	30       1
15		8	353      1
16		9	10       1
17		10	11       1
18		10	12       1
19		11	1466     1
20		12	1790     1
21		13	14       1
22		13	15       1
23		13	16       1
24		14	1475     1
25		15	1799     1
26		16	17       1
27		17	18       1
28		17	33       1
29		17	356      1
30		19	28       1
31		19	31       1
32		20	21       1
33		20	23       1
34		20	24       1
35		21	22       1
36		22	25       1
37		22	365      1
38		22	402      1
39		23	40       1
40		25	26       1
41		26	27       1
42		26	371      1
43		26	408      1
44		27	28       1
45		28	29       1
46		28	30       1
47		29	44       1
48		31	32       1
49		31	33       1
50		31	34       1
51		32	53       1
52		34	35       1
53		35	36       1
54		35	374      1
55		35	411      1
56		37	46       1
57		37	49       1
58		38	39       1
59		38	41       1
60		38	42       1
61		39	40       1
62		40	43       1
63		40	60       1
64		41	1498     1
65		42	1462     1
66		43	44       1
67		44	45       1
68		44	66       1
69		45	46       1
70		46	47       1
71		46	48       1
72		47	1502     1
73		48	1466     1
74		49	50       1
75		49	51       1
76		49	52       1
77		50	1511     1
78		51	1475     1
79		52	53       1
80		53	54       1
81		53	69       1
82		55	64       1
83		55	67       1
84		56	57       1
85		56	59       1
86		56	60       1
87		57	58       1
88		58	61       1
89		58	401      1
90		58	438      1
91		59	76       1
92		61	62       1
93		62	63       1
94		62	407      1
95		62	444      1
96		63	64       1
97		64	65       1
98		64	66       1
99		65	80       1
100		67	68       1
101		67	69       1
102		67	70       1
103		68	89       1
104		70	71       1
105		71	72       1
106		71	410      1
107		71	447      1
108		73	82       1
109		73	85       1
110		74	75       1
111		74	77       1
112		74	78       1
113		75	76       1
114		76	79       1
115		76	96       1
116		77	1534     1
117		78	1498     1
118		79	80       1
119		80	81       1
120		80	102      1
121		81	82       1
122		82	83       1
123		82	84       1
124		83	1538     1
125		84	1502     1
126		85	86       1
127		85	87       1
128		85	88       1
129		86	1547     1
130		87	1511     1
131		88	89       1
132		89	90       1
133		89	105      1
134		91	100      1
135		91	103      1
136		92	93       1
137		92	95       1
138		92	96       1
139		93	94       1
140		94	97       1
141		94	437      1
142		94	474      1
143		95	112      1
144		97	98       1
145		98	99       1
146		98	443      1
147		98	480      1
148		99	100      1
149		100	101      1
150		100	102      1
151		101	116      1
152		103	104      1
153		103	105      1
154		103	106      1
155		104	125      1
156		106	107      1
157		107	108      1
158		107	446      1
159		107	483      1
160		109	118      1
161		109	121      1
162		110	111      1
163		110	113      1
164		110	114      1
165		111	112      1
166		112	115      1
167		112	132      1
168		113	1570     1
169		114	1534     1
170		115	116      1
171		116	117      1
172		116	138      1
173		117	118      1
174		118	119      1
175		118	120      1
176		119	1574     1
177		120	1538     1
178		121	122      1
179		121	123      1
180		121	124      1
181		122	1583     1
182		123	1547     1
183		124	125      1
184		125	126      1
185		125	141      1
186		127	136      1
187		127	139      1
188		128	129      1
189		128	131      1
190		128	132      1
191		129	130      1
192		130	133      1
193		130	473      1
194		130	510      1
195		131	148      1
196		133	134      1
197		134	135      1
198		134	479      1
199		134	516      1
200		135	136      1
201		136	137      1
202		136	138      1
203		137	152      1
204		139	140      1
205		139	141      1
206		139	142      1
207		140	161      1
208		142	143      1
209		143	144      1
210		143	482      1
211		143	519      1
212		145	154      1
213		145	157      1
214		146	147      1
215		146	149      1
216		146	150      1
217		147	148      1
218		148	151      1
219		148	168      1
220		149	1606     1
221		150	1570     1
222		151	152      1
223		152	153      1
224		152	174      1
225		153	154      1
226		154	155      1
227		154	156      1
228		155	1610     1
229		156	1574     1
230		157	158      1
231		157	159      1
232		157	160      1
233		158	1619     1
234		159	1583     1
235		160	161      1
236		161	162      1
237		161	177      1
238		163	172      1
239		163	175      1
240		164	165      1
241		164	167      1
242		164	168      1
243		165	166      1
244		166	169      1
245		166	509      1
246		166	546      1
247		167	184      1
248		169	170      1
249		170	171      1
250		170	515      1
251		170	552      1
252		171	172      1
253		172	173      1
254		172	174      1
255		173	188      1
256		175	176      1
257		175	177      1
258		175	178      1
259		176	197      1
260		178	179      1
261		179	180      1
262		179	518      1
263		179	555      1
264		181	190      1
265		181	193      1
266		182	183      1
267		182	185      1
268		182	186      1
269		183	184      1
270		184	187      1
271		184	204      1
272		185	1642     1
273		186	1606     1
274		187	188      1
275		188	189      1
276		188	210      1
277		189	190      1
278		190	191      1
279		190	192      1
280		191	1646     1
281		192	1610     1
282		193	194      1
283		193	195      1
284		193	196      1
285		194	1655     1
286		195	1619     1
287		196	197      1
288		197	198      1
289		197	213      1
290		199	208      1
291		199	211      1
292		200	201      1
293		200	203      1
294		200	204      1
295		201	202      1
296		202	205      1
297		202	545      1
298		202	582      1
299		203	220      1
300		205	206      1
301		206	207      1
302		206	551      1
303		206	588      1
304		207	208      1
305		208	209      1
306		208	210      1
307		209	224      1
308		211	212      1
309		211	213      1
310		211	214      1
311		212	233      1
312		214	215      1
313		215	216      1
314		215	554      1
315		215	591      1
316		217	226      1
317		217	229      1
318		218	219      1
319		218	221      1
320		218	222      1
321		219	220      1
322		220	223      1
323		220	240      1
324		221	1678     1
325		222	1642     1
326		223	224      1
327		224	225      1
328		224	246      1
329		225	226      1
330		226	227      1
331		226	228      1
332		227	1682     1
333		228	1646     1
334		229	230      1
335		229	231      1
336		229	232      1
337		230	1691     1
338		231	1655     1
339		232	233      1
340		233	234      1
341		233	249      1
342		235	244      1
343		235	247      1
344		236	237      1
345		236	239      1
346		236	240      1
347		237	238      1
348		238	241      1
349		238	581      1
350		238	618      1
351		239	256      1
352		241	242      1
353		242	243      1
354		242	587      1
355		242	624      1
356		243	244      1
357		244	245      1
358		244	246      1
359		245	260      1
360		247	248      1
361		247	249      1
362		247	250      1
363		248	269      1
364		250	251      1
365		251	252      1
366		251	590      1
367		251	627      1
368		253	262      1
369		253	265      1
370		254	255      1
371		254	257      1
372		254	258      1
373		255	256      1
374		256	259      1
375		256	276      1
376		257	1714     1
377		258	1678     1
378		259	260      1
379		260	261      1
380		260	282      1
381		261	262      1
382		262	263      1
383		262	264      1
384		263	1718     1
385		264	1682     1
386		265	266      1
387		265	267      1
388		265	268      1
389		266	1727     1
390		267	1691     1
391		268	269      1
392		269	270      1
393		269	285      1
394		271	280      1
395		271	283      1
396		272	273      1
397		272	275      1
398		272	276      1
399		273	274      1
400		274	277      1
401		274	617      1
402		274	654      1
403		275	292      1
404		277	278      1
405		278	279      1
406		278	623      1
407		278	660      1
408		279	280      1
409		280	281      1
410		280	282      1
411		281	296      1
412		283	284      1
413		283	285      1
414		283	286      1
415		284	305      1
416		286	287      1
417		287	288      1
418		287	626      1
419		287	663      1
420		289	298      1
421		289	301      1
422		290	291      1
423		290	293      1
424		290	294      1
425		291	292      1
426		292	295      1
427		292	312      1
428		293	1750     1
429		294	1714     1
430		295	296      1
431		296	297      1
432		296	318      1
433		297	298      1
434		298	299      1
435		298	300      1
436		299	1754     1
437		300	1718     1
438		301	302      1
439		301	303      1
440		301	304      1
441		302	1763     1
442		303	1727     1
443		304	305      1
444		305	306      1
445		305	321      1
446		307	316      1
447		307	319      1
448		308	309      1
449		308	311      1
450		308	312      1
451		309	310      1
452		310	313      1
453		310	653      1
454		310	690      1
455		311	328      1
456		313	314      1
457		314	315      1
458		314	659      1
459		314	696      1
460		315	316      1
461		316	317      1
462		316	318      1
463		317	332      1
464		319	320      1
465		319	321      1
466		319	322      1
467		320	341      1
468		322	323      1
469		323	324      1
470		323	662      1
471		323	699      1
472		325	334      1
473		325	337      1
474		326	327      1
475		326	329      1
476		326	330      1
477		327	328      1
478		328	331      1
479		328	348      1
480		329	1786     1
481		330	1750     1
482		331	332      1
483		332	333      1
484		332	354      1
485		333	334      1
486		334	335      1
487		334	336      1
488		335	1790     1
489		336	1754     1
490		337	338      1
491		337	339      1
492		337	340      1
493		338	1799     1
494		339	1763     1
495		340	341      1
496		341	342      1
497		341	357      1
498		343	352      1
499		343	355      1
500		344	345      1
501		344	347      1
502		344	348      1
503		345	346      1
504		346	349      1
505		346	366      1
506		346	689      1
507		349	350      1
508		350	351      1
509		350	372      1
510		350	695      1
511		351	352      1
512		352	353      1
513		352	354      1
514		355	356      1
515		355	357      1
516		355	358      1
517		358	359      1
518		359	360      1
519		359	375      1
520		359	698      1
521		361	370      1
522		361	373      1
523		362	363      1
524		362	365      1
525		362	366      1
526		363	364      1
527		364	367      1
528		364	384      1
529		364	707      1
530		367	368      1
531		368	369      1
532		368	390      1
533		368	713      1
534		369	370      1
535		370	371      1
536		370	372      1
537		373	374      1
538		373	375      1
539		373	376      1
540		376	377      1
541		377	378      1
542		377	393      1
543		377	716      1
544		379	388      1
545		379	391      1
546		380	381      1
547		380	383      1
548		380	384      1
549		381	382      1
550		382	385      1
551		382	725      1
552		382	762      1
553		383	400      1
554		385	386      1
555		386	387      1
556		386	731      1
557		386	768      1
558		387	388      1
559		388	389      1
560		388	390      1
561		389	404      1
562		391	392      1
563		391	393      1
564		391	394      1
565		392	413      1
566		394	395      1
567		395	396      1
568		395	734      1
569		395	771      1
570		397	406      1
571		397	409      1
572		398	399      1
573		398	401      1
574		398	402      1
575		399	400      1
576		400	403      1
577		400	420      1
578		403	404      1
579		404	405      1
580		404	426      1
581		405	406      1
582		406	407      1
583		406	408      1
584		409	410      1
585		409	411      1
586		409	412      1
587		412	413      1
588		413	414      1
589		413	429      1
590		415	424      1
591		415	427      1
592		416	417      1
593		416	419      1
594		416	420      1
595		417	418      1
596		418	421      1
597		418	761      1
598		418	798      1
599		419	436      1
600		421	422      1
601		422	423      1
602		422	767      1
603		422	804      1
604		423	424      1
605		424	425      1
606		424	426      1
607		425	440      1
608		427	428      1
609		427	429      1
610		427	430      1
611		428	449      1
612		430	431      1
613		431	432      1
614		431	770      1
615		431	807      1
616		433	442      1
617		433	445      1
618		434	435      1
619		434	437      1
620		434	438      1
621		435	436      1
622		436	439      1
623		436	456      1
624		439	440      1
625		440	441      1
626		440	462      1
627		441	442      1
628		442	443      1
629		442	444      1
630		445	446      1
631		445	447      1
632		445	448      1
633		448	449      1
634		449	450      1
635		449	465      1
636		451	460      1
637		451	463      1
638		452	453      1
639		452	455      1
640		452	456      1
641		453	454      1
642		454	457      1
643		454	797      1
644		454	834      1
645		455	472      1
646		457	458      1
647		458	459      1
648		458	803      1
649		458	840      1
650		459	460      1
651		460	461      1
652		460	462      1
653		461	476      1
654		463	464      1
655		463	465      1
656		463	466      1
657		464	485      1
658		466	467      1
659		467	468      1
660		467	806      1
661		467	843      1
662		469	478      1
663		469	481      1
664		470	471      1
665		470	473      1
666		470	474      1
667		471	472      1
668		472	475      1
669		472	492      1
670		475	476      1
671		476	477      1
672		476	498      1
673		477	478      1
674		478	479      1
675		478	480      1
676		481	482      1
677		481	483      1
678		481	484      1
679		484	485      1
680		485	486      1
681		485	501      1
682		487	496      1
683		487	499      1
684		488	489      1
685		488	491      1
686		488	492      1
687		489	490      1
688		490	493      1
689		490	833      1
690		490	870      1
691		491	508      1
692		493	494      1
693		494	495      1
694		494	839      1
695		494	876      1
696		495	496      1
697		496	497      1
698		496	498      1
699		497	512      1
700		499	500      1
701		499	501      1
702		499	502      1
703		500	521      1
704		502	503      1
705		503	504      1
706		503	842      1
707		503	879      1
708		505	514      1
709		505	517      1
710		506	507      1
711		506	509      1
712		506	510      1
713		507	508      1
714		508	511      1
715		508	528      1
716		511	512      1
717		512	513      1
718		512	534      1
719		513	514      1
720		514	515      1
721		514	516      1
722		517	518      1
723		517	519      1
724		517	520      1
725		520	521      1
726		521	522      1
727		521	537      1
728		523	532      1
729		523	535      1
730		524	525      1
731		524	527      1
732		524	528      1
733		525	526      1
734		526	529      1
735		526	869      1
736		526	906      1
737		527	544      1
738		529	530      1
739		530	531      1
740		530	875      1
741		530	912      1
742		531	532      1
743		532	533      1
744		532	534      1
745		533	548      1
746		535	536      1
747		535	537      1
748		535	538      1
749		536	557      1
750		538	539      1
751		539	540      1
752		539	878      1
753		539	915      1
754		541	550      1
755		541	553      1
756		542	543      1
757		542	545      1
758		542	546      1
759		543	544      1
760		544	547      1
761		544	564      1
762		547	548      1
763		548	549      1
764		548	570      1
765		549	550      1
766		550	551      1
767		550	552      1
768		553	554      1
769		553	555      1
770		553	556      1
771		556	557      1
772		557	558      1
773		557	573      1
774		559	568      1
775		559	571      1
776		560	561      1
777		560	563      1
778		560	564      1
779		561	562      1
780		562	565      1
781		562	905      1
782		562	942      1
783		563	580      1
784		565	566      1
785		566	567      1
786		566	911      1
787		566	948      1
788		567	568      1
789		568	569      1
790		568	570      1
791		569	584      1
792		571	572      1
793		571	573      1
794		571	574      1
795		572	593      1
796		574	575      1
797		575	576      1
798		575	914      1
799		575	951      1
800		577	586      1
801		577	589      1
802		578	579      1
803		578	581      1
804		578	582      1
805		579	580      1
806		580	583      1
807		580	600      1
808		583	584      1
809		584	585      1
810		584	606      1
811		585	586      1
812		586	587      1
813		586	588      1
814		589	590      1
815		589	591      1
816		589	592      1
817		592	593      1
818		593	594      1
819		593	609      1
820		595	604      1
821		595	607      1
822		596	597      1
823		596	599      1
824		596	600      1
825		597	598      1
826		598	601      1
827		598	941      1
828		598	978      1
829		599	616      1
830		601	602      1
831		602	603      1
832		602	947      1
833		602	984      1
834		603	604      1
835		604	605      1
836		604	606      1
837		605	620      1
838		607	608      1
839		607	609      1
840		607	610      1
841		608	629      1
842		610	611      1
843		611	612      1
844		611	950      1
845		611	987      1
846		613	622      1
847		613	625      1
848		614	615      1
849		614	617      1
850		614	618      1
851		615	616      1
852		616	619      1
853		616	636      1
854		619	620      1
855		620	621      1
856		620	642      1
857		621	622      1
858		622	623      1
859		622	624      1
860		625	626      1
861		625	627      1
862		625	628      1
863		628	629      1
864		629	630      1
865		629	645      1
866		631	640      1
867		631	643      1
868		632	633      1
869		632	635      1
870		632	636      1
871		633	634      1
872		634	637      1
873		634	977      1
874		634	1014     1
875		635	652      1
876		637	638      1
877		638	639      1
878		638	983      1
879		638	1020     1
880		639	640      1
881		640	641      1
882		640	642      1
883		641	656      1
884		643	644      1
885		643	645      1
886		643	646      1
887		644	665      1
888		646	647      1
889		647	648      1
890		647	986      1
891		647	1023     1
892		649	658      1
893		649	661      1
894		650	651      1
895		650	653      1
896		650	654      1
897		651	652      1
898		652	655      1
899		652	672      1
900		655	656      1
901		656	657      1
902		656	678      1
903		657	658      1
904		658	659      1
905		658	660      1
906		661	662      1
907		661	663      1
908		661	664      1
909		664	665      1
910		665	666      1
911		665	681      1
912		667	676      1
913		667	679      1
914		668	669      1
915		668	671      1
916		668	672      1
917		669	670      1
918		670	673      1
919		670	1013     1
920		670	1050     1
921		671	688      1
922		673	674      1
923		674	675      1
924		674	1019     1
925		674	1056     1
926		675	676      1
927		676	677      1
928		676	678      1
929		677	692      1
930		679	680      1
931		679	681      1
932		679	682      1
933		680	701      1
934		682	683      1
935		683	684      1
936		683	1022     1
937		683	1059     1
938		685	694      1
939		685	697      1
940		686	687      1
941		686	689      1
942		686	690      1
943		687	688      1
944		688	691      1
945		688	708      1
946		691	692      1
947		692	693      1
948		692	714      1
949		693	694      1
950		694	695      1
951		694	696      1
952		697	698      1
953		697	699      1
954		697	700      1
955		700	701      1
956		701	702      1
957		701	717      1
958		703	712      1
959		703	715      1
960		704	705      1
961		704	707      1
962		704	708      1
963		705	706      1
964		706	709      1
965		706	726      1
966		706	1049     1
967		709	710      1
968		710	711      1
969		710	732      1
970		710	1055     1
971		711	712      1
972		712	713      1
973		712	714      1
974		715	716      1
975		715	717      1
976		715	718      1
977		718	719      1
978		719	720      1
979		719	735      1
980		719	1058     1
981		721	730      1
982		721	733      1
983		722	723      1
984		722	725      1
985		722	726      1
986		723	724      1
987		724	727      1
988		724	744      1
989		724	1067     1
990		727	728      1
991		728	729      1
992		728	750      1
993		728	1073     1
994		729	730      1
995		730	731      1
996		730	732      1
997		733	734      1
998		733	735      1
999		733	736      1
1000		736	737                      1
1001		737	738                      1
1002		737	753                      1
1003		737	1076                     1
1004		739	748                      1
1005		739	751                      1
1006		740	741                      1
1007		740	743                      1
1008		740	744                      1
1009		741	742                      1
1010		742	745                      1
1011		742	1085                     1
1012		742	1122                     1
1013		743	760                      1
1014		745	746                      1
1015		746	747                      1
1016		746	1091                     1
1017		746	1128                     1
1018		747	748                      1
1019		748	749                      1
1020		748	750                      1
1021		749	764                      1
1022		751	752                      1
1023		751	753                      1
1024		751	754                      1
1025		752	773                      1
1026		754	755                      1
1027		755	756                      1
1028		755	1094                     1
1029		755	1131                     1
1030		757	766                      1
1031		757	769                      1
1032		758	759                      1
1033		758	761                      1
1034		758	762                      1
1035		759	760                      1
1036		760	763                      1
1037		760	780                      1
1038		763	764                      1
1039		764	765                      1
1040		764	786                      1
1041		765	766                      1
1042		766	767                      1
1043		766	768                      1
1044		769	770                      1
1045		769	771                      1
1046		769	772                      1
1047		772	773                      1
1048		773	774                      1
1049		773	789                      1
1050		775	784                      1
1051		775	787                      1
1052		776	777                      1
1053		776	779                      1
1054		776	780                      1
1055		777	778                      1
1056		778	781                      1
1057		778	1121                     1
1058		778	1158                     1
1059		779	796                      1
1060		781	782                      1
1061		782	783                      1
1062		782	1127                     1
1063		782	1164                     1
1064		783	784                      1
1065		784	785                      1
1066		784	786                      1
1067		785	800                      1
1068		787	788                      1
1069		787	789                      1
1070		787	790                      1
1071		788	809                      1
1072		790	791                      1
1073		791	792                      1
1074		791	1130                     1
1075		791	1167                     1
1076		793	802                      1
1077		793	805                      1
1078		794	795                      1
1079		794	797                      1
1080		794	798                      1
1081		795	796                      1
1082		796	799                      1
1083		796	816                      1
1084		799	800                      1
1085		800	801                      1
1086		800	822                      1
1087		801	802                      1
1088		802	803                      1
1089		802	804                      1
1090		805	806                      1
1091		805	807                      1
1092		805	808                      1
1093		808	809                      1
1094		809	810                      1
1095		809	825                      1
1096		811	820                      1
1097		811	823                      1
1098		812	813                      1
1099		812	815                      1
1100		812	816                      1
1101		813	814                      1
1102		814	817                      1
1103		814	1157                     1
1104		814	1194                     1
1105		815	832                      1
1106		817	818                      1
1107		818	819                      1
1108		818	1163                     1
1109		818	1200                     1
1110		819	820                      1
1111		820	821                      1
1112		820	822                      1
1113		821	836                      1
1114		823	824                      1
1115		823	825                      1
1116		823	826                      1
1117		824	845                      1
1118		826	827                      1
1119		827	828                      1
1120		827	1166                     1
1121		827	1203                     1
1122		829	838                      1
1123		829	841                      1
1124		830	831                      1
1125		830	833                      1
1126		830	834                      1
1127		831	832                      1
1128		832	835                      1
1129		832	852                      1
1130		835	836                      1
1131		836	837                      1
1132		836	858                      1
1133		837	838                      1
1134		838	839                      1
1135		838	840                      1
1136		841	842                      1
1137		841	843                      1
1138		841	844                      1
1139		844	845                      1
1140		845	846                      1
1141		845	861                      1
1142		847	856                      1
1143		847	859                      1
1144		848	849                      1
1145		848	851                      1
1146		848	852                      1
1147		849	850                      1
1148		850	853                      1
1149		850	1193                     1
1150		850	1230                     1
1151		851	868                      1
1152		853	854                      1
1153		854	855                      1
1154		854	1199                     1
1155		854	1236                     1
1156		855	856                      1
1157		856	857                      1
1158		856	858                      1
1159		857	872                      1
1160		859	860                      1
1161		859	861                      1
1162		859	862                      1
1163		860	881                      1
1164		862	863                      1
1165		863	864                      1
1166		863	1202                     1
1167		863	1239                     1
1168		865	874                      1
1169		865	877                      1
1170		866	867                      1
1171		866	869                      1
1172		866	870                      1
1173		867	868                      1
1174		868	871                      1
1175		868	888                      1
1176		871	872                      1
1177		872	873                      1
1178		872	894                      1
1179		873	874                      1
1180		874	875                      1
1181		874	876                      1
1182		877	878                      1
1183		877	879                      1
1184		877	880                      1
1185		880	881                      1
1186		881	882                      1
1187		881	897                      1
1188		883	892                      1
1189		883	895                      1
1190		884	885                      1
1191		884	887                      1
1192		884	888                      1
1193		885	886                      1
1194		886	889                      1
1195		886	1229                     1
1196		886	1266                     1
1197		887	904                      1
1198		889	890                      1
1199		890	891                      1
1200		890	1235                     1
1201		890	1272                     1
1202		891	892                      1
1203		892	893                      1
1204		892	894                      1
1205		893	908                      1
1206		895	896                      1
1207		895	897                      1
1208		895	898                      1
1209		896	917                      1
1210		898	899                      1
1211		899	900                      1
1212		899	1238                     1
1213		899	1275                     1
1214		901	910                      1
1215		901	913                      1
1216		902	903                      1
1217		902	905                      1
1218		902	906                      1
1219		903	904                      1
1220		904	907                      1
1221		904	924                      1
1222		907	908                      1
1223		908	909                      1
1224		908	930                      1
1225		909	910                      1
1226		910	911                      1
1227		910	912                      1
1228		913	914                      1
1229		913	915                      1
1230		913	916                      1
1231		916	917                      1
1232		917	918                      1
1233		917	933                      1
1234		919	928                      1
1235		919	931                      1
1236		920	921                      1
1237		920	923                      1
1238		920	924                      1
1239		921	922                      1
1240		922	925                      1
1241		922	1265                     1
1242		922	1302                     1
1243		923	940                      1
1244		925	926                      1
1245		926	927                      1
1246		926	1271                     1
1247		926	1308                     1
1248		927	928                      1
1249		928	929                      1
1250		928	930                      1
1251		929	944                      1
1252		931	932                      1
1253		931	933                      1
1254		931	934                      1
1255		932	953                      1
1256		934	935                      1
1257		935	936                      1
1258		935	1274                     1
1259		935	1311                     1
1260		937	946                      1
1261		937	949                      1
1262		938	939                      1
1263		938	941                      1
1264		938	942                      1
1265		939	940                      1
1266		940	943                      1
1267		940	960                      1
1268		943	944                      1
1269		944	945                      1
1270		944	966                      1
1271		945	946                      1
1272		946	947                      1
1273		946	948                      1
1274		949	950                      1
1275		949	951                      1
1276		949	952                      1
1277		952	953                      1
1278		953	954                      1
1279		953	969                      1
1280		955	964                      1
1281		955	967                      1
1282		956	957                      1
1283		956	959                      1
1284		956	960                      1
1285		957	958                      1
1286		958	961                      1
1287		958	1301                     1
1288		958	1338                     1
1289		959	976                      1
1290		961	962                      1
1291		962	963                      1
1292		962	1307                     1
1293		962	1344                     1
1294		963	964                      1
1295		964	965                      1
1296		964	966                      1
1297		965	980                      1
1298		967	968                      1
1299		967	969                      1
1300		967	970                      1
1301		968	989                      1
1302		970	971                      1
1303		971	972                      1
1304		971	1310                     1
1305		971	1347                     1
1306		973	982                      1
1307		973	985                      1
1308		974	975                      1
1309		974	977                      1
1310		974	978                      1
1311		975	976                      1
1312		976	979                      1
1313		976	996                      1
1314		979	980                      1
1315		980	981                      1
1316		980	1002                     1
1317		981	982                      1
1318		982	983                      1
1319		982	984                      1
1320		985	986                      1
1321		985	987                      1
1322		985	988                      1
1323		988	989                      1
1324		989	990                      1
1325		989	1005                     1
1326		991	1000                     1
1327		991	1003                     1
1328		992	993                      1
1329		992	995                      1
1330		992	996                      1
1331		993	994                      1
1332		994	997                      1
1333		994	1337                     1
1334		994	1374                     1
1335		995	1012                     1
1336		997	998                      1
1337		998	999                      1
1338		998	1343                     1
1339		998	1380                     1
1340		999	1000                     1
1341		1000	1001                 1
1342		1000	1002                 1
1343		1001	1016                 1
1344		1003	1004                 1
1345		1003	1005                 1
1346		1003	1006                 1
1347		1004	1025                 1
1348		1006	1007                 1
1349		1007	1008                 1
1350		1007	1346                 1
1351		1007	1383                 1
1352		1009	1018                 1
1353		1009	1021                 1
1354		1010	1011                 1
1355		1010	1013                 1
1356		1010	1014                 1
1357		1011	1012                 1
1358		1012	1015                 1
1359		1012	1032                 1
1360		1015	1016                 1
1361		1016	1017                 1
1362		1016	1038                 1
1363		1017	1018                 1
1364		1018	1019                 1
1365		1018	1020                 1
1366		1021	1022                 1
1367		1021	1023                 1
1368		1021	1024                 1
1369		1024	1025                 1
1370		1025	1026                 1
1371		1025	1041                 1
1372		1027	1036                 1
1373		1027	1039                 1
1374		1028	1029                 1
1375		1028	1031                 1
1376		1028	1032                 1
1377		1029	1030                 1
1378		1030	1033                 1
1379		1030	1373                 1
1380		1030	1410                 1
1381		1031	1048                 1
1382		1033	1034                 1
1383		1034	1035                 1
1384		1034	1379                 1
1385		1034	1416                 1
1386		1035	1036                 1
1387		1036	1037                 1
1388		1036	1038                 1
1389		1037	1052                 1
1390		1039	1040                 1
1391		1039	1041                 1
1392		1039	1042                 1
1393		1040	1061                 1
1394		1042	1043                 1
1395		1043	1044                 1
1396		1043	1382                 1
1397		1043	1419                 1
1398		1045	1054                 1
1399		1045	1057                 1
1400		1046	1047                 1
1401		1046	1049                 1
1402		1046	1050                 1
1403		1047	1048                 1
1404		1048	1051                 1
1405		1048	1068                 1
1406		1051	1052                 1
1407		1052	1053                 1
1408		1052	1074                 1
1409		1053	1054                 1
1410		1054	1055                 1
1411		1054	1056                 1
1412		1057	1058                 1
1413		1057	1059                 1
1414		1057	1060                 1
1415		1060	1061                 1
1416		1061	1062                 1
1417		1061	1077                 1
1418		1063	1072                 1
1419		1063	1075                 1
1420		1064	1065                 1
1421		1064	1067                 1
1422		1064	1068                 1
1423		1065	1066                 1
1424		1066	1069                 1
1425		1066	1086                 1
1426		1066	1409                 1
1427		1069	1070                 1
1428		1070	1071                 1
1429		1070	1092                 1
1430		1070	1415                 1
1431		1071	1072                 1
1432		1072	1073                 1
1433		1072	1074                 1
1434		1075	1076                 1
1435		1075	1077                 1
1436		1075	1078                 1
1437		1078	1079                 1
1438		1079	1080                 1
1439		1079	1095                 1
1440		1079	1418                 1
1441		1081	1090                 1
1442		1081	1093                 1
1443		1082	1083                 1
1444		1082	1085                 1
1445		1082	1086                 1
1446		1083	1084                 1
1447		1084	1087                 1
1448		1084	1104                 1
1449		1084	1427                 1
1450		1087	1088                 1
1451		1088	1089                 1
1452		1088	1110                 1
1453		1088	1433                 1
1454		1089	1090                 1
1455		1090	1091                 1
1456		1090	1092                 1
1457		1093	1094                 1
1458		1093	1095                 1
1459		1093	1096                 1
1460		1096	1097                 1
1461		1097	1098                 1
1462		1097	1113                 1
1463		1097	1436                 1
1464		1099	1108                 1
1465		1099	1111                 1
1466		1100	1101                 1
1467		1100	1103                 1
1468		1100	1104                 1
1469		1101	1102                 1
1470		1102	1105                 1
1471		1102	1445                 1
1472		1102	1482                 1
1473		1103	1120                 1
1474		1105	1106                 1
1475		1106	1107                 1
1476		1106	1451                 1
1477		1106	1488                 1
1478		1107	1108                 1
1479		1108	1109                 1
1480		1108	1110                 1
1481		1109	1124                 1
1482		1111	1112                 1
1483		1111	1113                 1
1484		1111	1114                 1
1485		1112	1133                 1
1486		1114	1115                 1
1487		1115	1116                 1
1488		1115	1454                 1
1489		1115	1491                 1
1490		1117	1126                 1
1491		1117	1129                 1
1492		1118	1119                 1
1493		1118	1121                 1
1494		1118	1122                 1
1495		1119	1120                 1
1496		1120	1123                 1
1497		1120	1140                 1
1498		1123	1124                 1
1499		1124	1125                 1
1500		1124	1146                 1
1501		1125	1126                 1
1502		1126	1127                 1
1503		1126	1128                 1
1504		1129	1130                 1
1505		1129	1131                 1
1506		1129	1132                 1
1507		1132	1133                 1
1508		1133	1134                 1
1509		1133	1149                 1
1510		1135	1144                 1
1511		1135	1147                 1
1512		1136	1137                 1
1513		1136	1139                 1
1514		1136	1140                 1
1515		1137	1138                 1
1516		1138	1141                 1
1517		1138	1481                 1
1518		1138	1518                 1
1519		1139	1156                 1
1520		1141	1142                 1
1521		1142	1143                 1
1522		1142	1487                 1
1523		1142	1524                 1
1524		1143	1144                 1
1525		1144	1145                 1
1526		1144	1146                 1
1527		1145	1160                 1
1528		1147	1148                 1
1529		1147	1149                 1
1530		1147	1150                 1
1531		1148	1169                 1
1532		1150	1151                 1
1533		1151	1152                 1
1534		1151	1490                 1
1535		1151	1527                 1
1536		1153	1162                 1
1537		1153	1165                 1
1538		1154	1155                 1
1539		1154	1157                 1
1540		1154	1158                 1
1541		1155	1156                 1
1542		1156	1159                 1
1543		1156	1176                 1
1544		1159	1160                 1
1545		1160	1161                 1
1546		1160	1182                 1
1547		1161	1162                 1
1548		1162	1163                 1
1549		1162	1164                 1
1550		1165	1166                 1
1551		1165	1167                 1
1552		1165	1168                 1
1553		1168	1169                 1
1554		1169	1170                 1
1555		1169	1185                 1
1556		1171	1180                 1
1557		1171	1183                 1
1558		1172	1173                 1
1559		1172	1175                 1
1560		1172	1176                 1
1561		1173	1174                 1
1562		1174	1177                 1
1563		1174	1517                 1
1564		1174	1554                 1
1565		1175	1192                 1
1566		1177	1178                 1
1567		1178	1179                 1
1568		1178	1523                 1
1569		1178	1560                 1
1570		1179	1180                 1
1571		1180	1181                 1
1572		1180	1182                 1
1573		1181	1196                 1
1574		1183	1184                 1
1575		1183	1185                 1
1576		1183	1186                 1
1577		1184	1205                 1
1578		1186	1187                 1
1579		1187	1188                 1
1580		1187	1526                 1
1581		1187	1563                 1
1582		1189	1198                 1
1583		1189	1201                 1
1584		1190	1191                 1
1585		1190	1193                 1
1586		1190	1194                 1
1587		1191	1192                 1
1588		1192	1195                 1
1589		1192	1212                 1
1590		1195	1196                 1
1591		1196	1197                 1
1592		1196	1218                 1
1593		1197	1198                 1
1594		1198	1199                 1
1595		1198	1200                 1
1596		1201	1202                 1
1597		1201	1203                 1
1598		1201	1204                 1
1599		1204	1205                 1
1600		1205	1206                 1
1601		1205	1221                 1
1602		1207	1216                 1
1603		1207	1219                 1
1604		1208	1209                 1
1605		1208	1211                 1
1606		1208	1212                 1
1607		1209	1210                 1
1608		1210	1213                 1
1609		1210	1553                 1
1610		1210	1590                 1
1611		1211	1228                 1
1612		1213	1214                 1
1613		1214	1215                 1
1614		1214	1559                 1
1615		1214	1596                 1
1616		1215	1216                 1
1617		1216	1217                 1
1618		1216	1218                 1
1619		1217	1232                 1
1620		1219	1220                 1
1621		1219	1221                 1
1622		1219	1222                 1
1623		1220	1241                 1
1624		1222	1223                 1
1625		1223	1224                 1
1626		1223	1562                 1
1627		1223	1599                 1
1628		1225	1234                 1
1629		1225	1237                 1
1630		1226	1227                 1
1631		1226	1229                 1
1632		1226	1230                 1
1633		1227	1228                 1
1634		1228	1231                 1
1635		1228	1248                 1
1636		1231	1232                 1
1637		1232	1233                 1
1638		1232	1254                 1
1639		1233	1234                 1
1640		1234	1235                 1
1641		1234	1236                 1
1642		1237	1238                 1
1643		1237	1239                 1
1644		1237	1240                 1
1645		1240	1241                 1
1646		1241	1242                 1
1647		1241	1257                 1
1648		1243	1252                 1
1649		1243	1255                 1
1650		1244	1245                 1
1651		1244	1247                 1
1652		1244	1248                 1
1653		1245	1246                 1
1654		1246	1249                 1
1655		1246	1589                 1
1656		1246	1626                 1
1657		1247	1264                 1
1658		1249	1250                 1
1659		1250	1251                 1
1660		1250	1595                 1
1661		1250	1632                 1
1662		1251	1252                 1
1663		1252	1253                 1
1664		1252	1254                 1
1665		1253	1268                 1
1666		1255	1256                 1
1667		1255	1257                 1
1668		1255	1258                 1
1669		1256	1277                 1
1670		1258	1259                 1
1671		1259	1260                 1
1672		1259	1598                 1
1673		1259	1635                 1
1674		1261	1270                 1
1675		1261	1273                 1
1676		1262	1263                 1
1677		1262	1265                 1
1678		1262	1266                 1
1679		1263	1264                 1
1680		1264	1267                 1
1681		1264	1284                 1
1682		1267	1268                 1
1683		1268	1269                 1
1684		1268	1290                 1
1685		1269	1270                 1
1686		1270	1271                 1
1687		1270	1272                 1
1688		1273	1274                 1
1689		1273	1275                 1
1690		1273	1276                 1
1691		1276	1277                 1
1692		1277	1278                 1
1693		1277	1293                 1
1694		1279	1288                 1
1695		1279	1291                 1
1696		1280	1281                 1
1697		1280	1283                 1
1698		1280	1284                 1
1699		1281	1282                 1
1700		1282	1285                 1
1701		1282	1625                 1
1702		1282	1662                 1
1703		1283	1300                 1
1704		1285	1286                 1
1705		1286	1287                 1
1706		1286	1631                 1
1707		1286	1668                 1
1708		1287	1288                 1
1709		1288	1289                 1
1710		1288	1290                 1
1711		1289	1304                 1
1712		1291	1292                 1
1713		1291	1293                 1
1714		1291	1294                 1
1715		1292	1313                 1
1716		1294	1295                 1
1717		1295	1296                 1
1718		1295	1634                 1
1719		1295	1671                 1
1720		1297	1306                 1
1721		1297	1309                 1
1722		1298	1299                 1
1723		1298	1301                 1
1724		1298	1302                 1
1725		1299	1300                 1
1726		1300	1303                 1
1727		1300	1320                 1
1728		1303	1304                 1
1729		1304	1305                 1
1730		1304	1326                 1
1731		1305	1306                 1
1732		1306	1307                 1
1733		1306	1308                 1
1734		1309	1310                 1
1735		1309	1311                 1
1736		1309	1312                 1
1737		1312	1313                 1
1738		1313	1314                 1
1739		1313	1329                 1
1740		1315	1324                 1
1741		1315	1327                 1
1742		1316	1317                 1
1743		1316	1319                 1
1744		1316	1320                 1
1745		1317	1318                 1
1746		1318	1321                 1
1747		1318	1661                 1
1748		1318	1698                 1
1749		1319	1336                 1
1750		1321	1322                 1
1751		1322	1323                 1
1752		1322	1667                 1
1753		1322	1704                 1
1754		1323	1324                 1
1755		1324	1325                 1
1756		1324	1326                 1
1757		1325	1340                 1
1758		1327	1328                 1
1759		1327	1329                 1
1760		1327	1330                 1
1761		1328	1349                 1
1762		1330	1331                 1
1763		1331	1332                 1
1764		1331	1670                 1
1765		1331	1707                 1
1766		1333	1342                 1
1767		1333	1345                 1
1768		1334	1335                 1
1769		1334	1337                 1
1770		1334	1338                 1
1771		1335	1336                 1
1772		1336	1339                 1
1773		1336	1356                 1
1774		1339	1340                 1
1775		1340	1341                 1
1776		1340	1362                 1
1777		1341	1342                 1
1778		1342	1343                 1
1779		1342	1344                 1
1780		1345	1346                 1
1781		1345	1347                 1
1782		1345	1348                 1
1783		1348	1349                 1
1784		1349	1350                 1
1785		1349	1365                 1
1786		1351	1360                 1
1787		1351	1363                 1
1788		1352	1353                 1
1789		1352	1355                 1
1790		1352	1356                 1
1791		1353	1354                 1
1792		1354	1357                 1
1793		1354	1697                 1
1794		1354	1734                 1
1795		1355	1372                 1
1796		1357	1358                 1
1797		1358	1359                 1
1798		1358	1703                 1
1799		1358	1740                 1
1800		1359	1360                 1
1801		1360	1361                 1
1802		1360	1362                 1
1803		1361	1376                 1
1804		1363	1364                 1
1805		1363	1365                 1
1806		1363	1366                 1
1807		1364	1385                 1
1808		1366	1367                 1
1809		1367	1368                 1
1810		1367	1706                 1
1811		1367	1743                 1
1812		1369	1378                 1
1813		1369	1381                 1
1814		1370	1371                 1
1815		1370	1373                 1
1816		1370	1374                 1
1817		1371	1372                 1
1818		1372	1375                 1
1819		1372	1392                 1
1820		1375	1376                 1
1821		1376	1377                 1
1822		1376	1398                 1
1823		1377	1378                 1
1824		1378	1379                 1
1825		1378	1380                 1
1826		1381	1382                 1
1827		1381	1383                 1
1828		1381	1384                 1
1829		1384	1385                 1
1830		1385	1386                 1
1831		1385	1401                 1
1832		1387	1396                 1
1833		1387	1399                 1
1834		1388	1389                 1
1835		1388	1391                 1
1836		1388	1392                 1
1837		1389	1390                 1
1838		1390	1393                 1
1839		1390	1733                 1
1840		1390	1770                 1
1841		1391	1408                 1
1842		1393	1394                 1
1843		1394	1395                 1
1844		1394	1739                 1
1845		1394	1776                 1
1846		1395	1396                 1
1847		1396	1397                 1
1848		1396	1398                 1
1849		1397	1412                 1
1850		1399	1400                 1
1851		1399	1401                 1
1852		1399	1402                 1
1853		1400	1421                 1
1854		1402	1403                 1
1855		1403	1404                 1
1856		1403	1742                 1
1857		1403	1779                 1
1858		1405	1414                 1
1859		1405	1417                 1
1860		1406	1407                 1
1861		1406	1409                 1
1862		1406	1410                 1
1863		1407	1408                 1
1864		1408	1411                 1
1865		1408	1428                 1
1866		1411	1412                 1
1867		1412	1413                 1
1868		1412	1434                 1
1869		1413	1414                 1
1870		1414	1415                 1
1871		1414	1416                 1
1872		1417	1418                 1
1873		1417	1419                 1
1874		1417	1420                 1
1875		1420	1421                 1
1876		1421	1422                 1
1877		1421	1437                 1
1878		1423	1432                 1
1879		1423	1435                 1
1880		1424	1425                 1
1881		1424	1427                 1
1882		1424	1428                 1
1883		1425	1426                 1
1884		1426	1429                 1
1885		1426	1446                 1
1886		1426	1769                 1
1887		1429	1430                 1
1888		1430	1431                 1
1889		1430	1452                 1
1890		1430	1775                 1
1891		1431	1432                 1
1892		1432	1433                 1
1893		1432	1434                 1
1894		1435	1436                 1
1895		1435	1437                 1
1896		1435	1438                 1
1897		1438	1439                 1
1898		1439	1440                 1
1899		1439	1455                 1
1900		1439	1778                 1
1901		1441	1450                 1
1902		1441	1453                 1
1903		1442	1443                 1
1904		1442	1445                 1
1905		1442	1446                 1
1906		1443	1444                 1
1907		1444	1447                 1
1908		1444	1464                 1
1909		1444	1787                 1
1910		1447	1448                 1
1911		1448	1449                 1
1912		1448	1470                 1
1913		1448	1793                 1
1914		1449	1450                 1
1915		1450	1451                 1
1916		1450	1452                 1
1917		1453	1454                 1
1918		1453	1455                 1
1919		1453	1456                 1
1920		1456	1457                 1
1921		1457	1458                 1
1922		1457	1473                 1
1923		1457	1796                 1
1924		1459	1468                 1
1925		1459	1471                 1
1926		1460	1461                 1
1927		1460	1463                 1
1928		1460	1464                 1
1929		1461	1462                 1
1930		1462	1465                 1
1931		1463	1480                 1
1932		1465	1466                 1
1933		1466	1467                 1
1934		1467	1468                 1
1935		1468	1469                 1
1936		1468	1470                 1
1937		1469	1484                 1
1938		1471	1472                 1
1939		1471	1473                 1
1940		1471	1474                 1
1941		1472	1493                 1
1942		1474	1475                 1
1943		1475	1476                 1
1944		1477	1486                 1
1945		1477	1489                 1
1946		1478	1479                 1
1947		1478	1481                 1
1948		1478	1482                 1
1949		1479	1480                 1
1950		1480	1483                 1
1951		1480	1500                 1
1952		1483	1484                 1
1953		1484	1485                 1
1954		1484	1506                 1
1955		1485	1486                 1
1956		1486	1487                 1
1957		1486	1488                 1
1958		1489	1490                 1
1959		1489	1491                 1
1960		1489	1492                 1
1961		1492	1493                 1
1962		1493	1494                 1
1963		1493	1509                 1
1964		1495	1504                 1
1965		1495	1507                 1
1966		1496	1497                 1
1967		1496	1499                 1
1968		1496	1500                 1
1969		1497	1498                 1
1970		1498	1501                 1
1971		1499	1516                 1
1972		1501	1502                 1
1973		1502	1503                 1
1974		1503	1504                 1
1975		1504	1505                 1
1976		1504	1506                 1
1977		1505	1520                 1
1978		1507	1508                 1
1979		1507	1509                 1
1980		1507	1510                 1
1981		1508	1529                 1
1982		1510	1511                 1
1983		1511	1512                 1
1984		1513	1522                 1
1985		1513	1525                 1
1986		1514	1515                 1
1987		1514	1517                 1
1988		1514	1518                 1
1989		1515	1516                 1
1990		1516	1519                 1
1991		1516	1536                 1
1992		1519	1520                 1
1993		1520	1521                 1
1994		1520	1542                 1
1995		1521	1522                 1
1996		1522	1523                 1
1997		1522	1524                 1
1998		1525	1526                 1
1999		1525	1527                 1
2000		1525	1528                 1
2001		1528	1529                 1
2002		1529	1530                 1
2003		1529	1545                 1
2004		1531	1540                 1
2005		1531	1543                 1
2006		1532	1533                 1
2007		1532	1535                 1
2008		1532	1536                 1
2009		1533	1534                 1
2010		1534	1537                 1
2011		1535	1552                 1
2012		1537	1538                 1
2013		1538	1539                 1
2014		1539	1540                 1
2015		1540	1541                 1
2016		1540	1542                 1
2017		1541	1556                 1
2018		1543	1544                 1
2019		1543	1545                 1
2020		1543	1546                 1
2021		1544	1565                 1
2022		1546	1547                 1
2023		1547	1548                 1
2024		1549	1558                 1
2025		1549	1561                 1
2026		1550	1551                 1
2027		1550	1553                 1
2028		1550	1554                 1
2029		1551	1552                 1
2030		1552	1555                 1
2031		1552	1572                 1
2032		1555	1556                 1
2033		1556	1557                 1
2034		1556	1578                 1
2035		1557	1558                 1
2036		1558	1559                 1
2037		1558	1560                 1
2038		1561	1562                 1
2039		1561	1563                 1
2040		1561	1564                 1
2041		1564	1565                 1
2042		1565	1566                 1
2043		1565	1581                 1
2044		1567	1576                 1
2045		1567	1579                 1
2046		1568	1569                 1
2047		1568	1571                 1
2048		1568	1572                 1
2049		1569	1570                 1
2050		1570	1573                 1
2051		1571	1588                 1
2052		1573	1574                 1
2053		1574	1575                 1
2054		1575	1576                 1
2055		1576	1577                 1
2056		1576	1578                 1
2057		1577	1592                 1
2058		1579	1580                 1
2059		1579	1581                 1
2060		1579	1582                 1
2061		1580	1601                 1
2062		1582	1583                 1
2063		1583	1584                 1
2064		1585	1594                 1
2065		1585	1597                 1
2066		1586	1587                 1
2067		1586	1589                 1
2068		1586	1590                 1
2069		1587	1588                 1
2070		1588	1591                 1
2071		1588	1608                 1
2072		1591	1592                 1
2073		1592	1593                 1
2074		1592	1614                 1
2075		1593	1594                 1
2076		1594	1595                 1
2077		1594	1596                 1
2078		1597	1598                 1
2079		1597	1599                 1
2080		1597	1600                 1
2081		1600	1601                 1
2082		1601	1602                 1
2083		1601	1617                 1
2084		1603	1612                 1
2085		1603	1615                 1
2086		1604	1605                 1
2087		1604	1607                 1
2088		1604	1608                 1
2089		1605	1606                 1
2090		1606	1609                 1
2091		1607	1624                 1
2092		1609	1610                 1
2093		1610	1611                 1
2094		1611	1612                 1
2095		1612	1613                 1
2096		1612	1614                 1
2097		1613	1628                 1
2098		1615	1616                 1
2099		1615	1617                 1
2100		1615	1618                 1
2101		1616	1637                 1
2102		1618	1619                 1
2103		1619	1620                 1
2104		1621	1630                 1
2105		1621	1633                 1
2106		1622	1623                 1
2107		1622	1625                 1
2108		1622	1626                 1
2109		1623	1624                 1
2110		1624	1627                 1
2111		1624	1644                 1
2112		1627	1628                 1
2113		1628	1629                 1
2114		1628	1650                 1
2115		1629	1630                 1
2116		1630	1631                 1
2117		1630	1632                 1
2118		1633	1634                 1
2119		1633	1635                 1
2120		1633	1636                 1
2121		1636	1637                 1
2122		1637	1638                 1
2123		1637	1653                 1
2124		1639	1648                 1
2125		1639	1651                 1
2126		1640	1641                 1
2127		1640	1643                 1
2128		1640	1644                 1
2129		1641	1642                 1
2130		1642	1645                 1
2131		1643	1660                 1
2132		1645	1646                 1
2133		1646	1647                 1
2134		1647	1648                 1
2135		1648	1649                 1
2136		1648	1650                 1
2137		1649	1664                 1
2138		1651	1652                 1
2139		1651	1653                 1
2140		1651	1654                 1
2141		1652	1673                 1
2142		1654	1655                 1
2143		1655	1656                 1
2144		1657	1666                 1
2145		1657	1669                 1
2146		1658	1659                 1
2147		1658	1661                 1
2148		1658	1662                 1
2149		1659	1660                 1
2150		1660	1663                 1
2151		1660	1680                 1
2152		1663	1664                 1
2153		1664	1665                 1
2154		1664	1686                 1
2155		1665	1666                 1
2156		1666	1667                 1
2157		1666	1668                 1
2158		1669	1670                 1
2159		1669	1671                 1
2160		1669	1672                 1
2161		1672	1673                 1
2162		1673	1674                 1
2163		1673	1689                 1
2164		1675	1684                 1
2165		1675	1687                 1
2166		1676	1677                 1
2167		1676	1679                 1
2168		1676	1680                 1
2169		1677	1678                 1
2170		1678	1681                 1
2171		1679	1696                 1
2172		1681	1682                 1
2173		1682	1683                 1
2174		1683	1684                 1
2175		1684	1685                 1
2176		1684	1686                 1
2177		1685	1700                 1
2178		1687	1688                 1
2179		1687	1689                 1
2180		1687	1690                 1
2181		1688	1709                 1
2182		1690	1691                 1
2183		1691	1692                 1
2184		1693	1702                 1
2185		1693	1705                 1
2186		1694	1695                 1
2187		1694	1697                 1
2188		1694	1698                 1
2189		1695	1696                 1
2190		1696	1699                 1
2191		1696	1716                 1
2192		1699	1700                 1
2193		1700	1701                 1
2194		1700	1722                 1
2195		1701	1702                 1
2196		1702	1703                 1
2197		1702	1704                 1
2198		1705	1706                 1
2199		1705	1707                 1
2200		1705	1708                 1
2201		1708	1709                 1
2202		1709	1710                 1
2203		1709	1725                 1
2204		1711	1720                 1
2205		1711	1723                 1
2206		1712	1713                 1
2207		1712	1715                 1
2208		1712	1716                 1
2209		1713	1714                 1
2210		1714	1717                 1
2211		1715	1732                 1
2212		1717	1718                 1
2213		1718	1719                 1
2214		1719	1720                 1
2215		1720	1721                 1
2216		1720	1722                 1
2217		1721	1736                 1
2218		1723	1724                 1
2219		1723	1725                 1
2220		1723	1726                 1
2221		1724	1745                 1
2222		1726	1727                 1
2223		1727	1728                 1
2224		1729	1738                 1
2225		1729	1741                 1
2226		1730	1731                 1
2227		1730	1733                 1
2228		1730	1734                 1
2229		1731	1732                 1
2230		1732	1735                 1
2231		1732	1752                 1
2232		1735	1736                 1
2233		1736	1737                 1
2234		1736	1758                 1
2235		1737	1738                 1
2236		1738	1739                 1
2237		1738	1740                 1
2238		1741	1742                 1
2239		1741	1743                 1
2240		1741	1744                 1
2241		1744	1745                 1
2242		1745	1746                 1
2243		1745	1761                 1
2244		1747	1756                 1
2245		1747	1759                 1
2246		1748	1749                 1
2247		1748	1751                 1
2248		1748	1752                 1
2249		1749	1750                 1
2250		1750	1753                 1
2251		1751	1768                 1
2252		1753	1754                 1
2253		1754	1755                 1
2254		1755	1756                 1
2255		1756	1757                 1
2256		1756	1758                 1
2257		1757	1772                 1
2258		1759	1760                 1
2259		1759	1761                 1
2260		1759	1762                 1
2261		1760	1781                 1
2262		1762	1763                 1
2263		1763	1764                 1
2264		1765	1774                 1
2265		1765	1777                 1
2266		1766	1767                 1
2267		1766	1769                 1
2268		1766	1770                 1
2269		1767	1768                 1
2270		1768	1771                 1
2271		1768	1788                 1
2272		1771	1772                 1
2273		1772	1773                 1
2274		1772	1794                 1
2275		1773	1774                 1
2276		1774	1775                 1
2277		1774	1776                 1
2278		1777	1778                 1
2279		1777	1779                 1
2280		1777	1780                 1
2281		1780	1781                 1
2282		1781	1782                 1
2283		1781	1797                 1
2284		1783	1792                 1
2285		1783	1795                 1
2286		1784	1785                 1
2287		1784	1787                 1
2288		1784	1788                 1
2289		1785	1786                 1
2290		1786	1789                 1
2291		1789	1790                 1
2292		1790	1791                 1
2293		1791	1792                 1
2294		1792	1793                 1
2295		1792	1794                 1
2296		1795	1796                 1
2297		1795	1797                 1
2298		1795	1798                 1
2299		1798	1799                 1
2300		1799	1800                 1
