@<TRIPOS>MOLECULE
*****
 8 7 0 0 0
SMALL
GASTEIGER

@<TRIPOS>ATOM
      1 C          -2.4784    1.9888    0.0000 C.3     1  LIG1       -0.0681
      2 C          -1.1752    2.9033    0.0000 C.3     1  LIG1       -0.0681
      3 H          -3.3106    2.5540   -0.3645 H       1  LIG1        0.0227
      4 H          -2.6815    1.6573    0.9969 H       1  LIG1        0.0227
      5 H          -2.3189    1.1405   -0.6324 H       1  LIG1        0.0227
      6 H          -1.3347    3.7515    0.6324 H       1  LIG1        0.0227
      7 H          -0.9720    3.2347   -0.9969 H       1  LIG1        0.0227
      8 H          -0.3429    2.3381    0.3645 H       1  LIG1        0.0227
@<TRIPOS>BOND
     1     1     2    1
     2     1     3    1
     3     1     4    1
     4     1     5    1
     5     2     6    1
     6     2     7    1
     7     2     8    1
@<TRIPOS>
