@<TRIPOS>MOLECULE
ETH
   16   14    1    0    0
SMALL
USER_CHARGES
****
Energy = 0

@<TRIPOS>ATOM
      1  C1        35.5140   19.2460   34.4170    C    1  ETH        -0.180000
      2  C2        36.6600   18.6240   33.6370    C    1  ETH        -0.180000
      3  H3        35.4340   20.3260   34.1710    H    1  ETH        0.060000
      4  H4        34.5610   18.7410   34.1540    H    1  ETH        0.060000
      5  H5        35.6970   19.1340   35.5070    H    1  ETH        0.060000
      6  H6        37.6130   19.1290   33.8990    H    1  ETH        0.060000
      7  H7        36.7400   17.5440   33.8830    H    1  ETH        0.060000
      8  H8        36.4770   18.7350   32.5470    H    1  ETH        0.060000
      9  C8        29.0900   26.1850   32.0230    C    2  ETH        -0.180000
     10  C9        27.9240   27.0340   31.5460    C    2  ETH        -0.180000
     11  H10       30.0320   26.7690   31.9580    H    2  ETH        0.060000
     12  H11       28.9240   25.8760   33.0760    H    2  ETH        0.060000
     13  H12       29.1790   25.2790   31.3870    H    2  ETH        0.060000
     14  H13       28.0890   27.3430   30.4920    H    2  ETH        0.060000
     15  H14       26.9810   26.4500   31.6110    H    2  ETH        0.060000
     16  H15       27.8340   27.9410   32.1810    H    2  ETH        0.060000
@<TRIPOS>BOND
    1     1     2  1
    2     1     3  1
    3     1     4  1
    4     1     5  1
    5     2     6  1
    6     2     7  1
    7     2     8  1
    8     9    10  1
    9     9    11  1
   10     9    12  1
   11     9    13  1
   12    10    14  1
   13    10    15  1
   14    10    16  1

@<TRIPOS>SUBSTRUCTURE
1 ****        1 TEMP                        0 ****  **** 0 ROOT
