@<TRIPOS>MOLECULE
BUT
   14   13    1    0    0
SMALL
NO_CHARGES
****
Energy = 0

@<TRIPOS>ATOM
      1  C1        -2.2000    1.2124    0.0000    C    1  BUT        0.000000
      2  C2        -1.5000    0.0000    0.0000    C    1  BUT        0.000000
      3  C3         0.0000    0.0000    0.0000    C    1  BUT        0.000000
      4  C4         0.7000   -1.2124   -0.0000    C    1  BUT        0.000000
      5  H41        1.6803   -1.0254   -0.1206    H    1  BUT        0.000000
      6  H11       -1.8131    1.7905    0.7126    H    1  BUT        0.000000
      7  H12       -1.9666    1.7544   -0.8134    H    1  BUT        0.000000
      8  H21       -1.8198   -0.4847   -0.8141    H    1  BUT        0.000000
      9  H22       -1.8198   -0.4847    0.8141    H    1  BUT        0.000000
     10  H13       -3.1971    1.2516    0.0959    H    1  BUT        0.000000
     11  H42        0.5936   -1.5578    0.9099    H    1  BUT        0.000000
     12  H43        0.3070   -1.8446   -0.4962    H    1  BUT        0.000000
     13  H31        0.2177    0.2554   -0.8800    H    1  BUT        0.000000
     14  H32        0.4042    0.6781    0.5034    H    1  BUT        0.000000
@<TRIPOS>BOND
    1     3     2  1
    2     3     4  1
    3     3    13  1
    4     3    14  1
    5     2     1  1
    6     2     8  1
    7     2     9  1
    8     1     6  1
    9     1     7  1
   10     1    10  1
   11     4     5  1
   12     4    11  1
   13     4    12  1

@<TRIPOS>SUBSTRUCTURE
1 ****        1 TEMP                        0 ****  **** 0 ROOT

#generated by VMD
