@<TRIPOS>MOLECULE
ETH
    2    1    1    0    0
SMALL
NO_CHARGES
****
Energy = 0

@<TRIPOS>ATOM
      1  _CH3       0.0000    0.0000    0.0000    C    1  ETH        0.000000
      2  _CH3       1.5400    0.0000    0.0000    C    1  ETH        0.000000
@<TRIPOS>BOND
    1     1     2  1

@<TRIPOS>SUBSTRUCTURE
1 ****        1 TEMP                        0 ****  **** 0 ROOT

#generated by VMD
