@<TRIPOS>MOLECULE
EBN
   18   18    1    0    0
SMALL
NO_CHARGES
****
Energy = 0

@<TRIPOS>ATOM
      1  C          0.0000    0.0000    0.0000    C    1  EBN        0.000000
      2  C          1.4000    0.0000    0.0000    C    1  EBN        0.000000
      3  C          2.1000    1.2124    0.0000    C    1  EBN        0.000000
      4  C          1.4000    2.4249    0.0000    C    1  EBN        0.000000
      5  C          0.0000    2.4249    0.0000    C    1  EBN        0.000000
      6  C         -0.7000    1.2124    0.0000    C    1  EBN        0.000000
      7  C         -2.2000    1.2123    0.0000    C    1  EBN        0.000000
      8  C         -2.9501    2.5113    0.0000    C    1  EBN        0.000000
      9  H         -0.5000   -0.8660    0.0000    H    1  EBN        0.000000
     10  H          1.9000   -0.8660    0.0000    H    1  EBN        0.000000
     11  H          3.1000    1.2123    0.0000    H    1  EBN        0.000000
     12  H          1.9000    3.2909    0.0000    H    1  EBN        0.000000
     13  H         -0.5000    3.2909    0.0000    H    1  EBN        0.000000
     14  H         -2.4903    0.7094   -0.8141    H    1  EBN        0.000000
     15  H         -2.4903    0.7094    0.8141    H    1  EBN        0.000000
     16  H         -2.2941    3.2660   -0.0000    H    1  EBN        0.000000
     17  H         -3.5223    2.5568   -0.8188    H    1  EBN        0.000000
     18  H         -3.5223    2.5568    0.8188    H    1  EBN        0.000000
@<TRIPOS>BOND
    1     1     2  1
    2     1     6  2
    3     1     9  1
    4     2     3  2
    5     2    10  1
    6     3     4  1
    7     3    11  1
    8     4     5  2
    9     4    12  1
   10     5     6  1
   11     5    13  1
   12     6     7  1
   13     7     8  1
   14     7    14  1
   15     7    15  1
   16     8    16  1
   17     8    17  1
   18     8    18  1

@<TRIPOS>SUBSTRUCTURE
1 ****        1 TEMP                        0 ****  **** 0 ROOT

#generated by VMD
