@<TRIPOS>MOLECULE
MBN
   15   15    1    0    0
SMALL
NO_CHARGES
****
Energy = 0

@<TRIPOS>ATOM
      1  C          0.0000    0.0000    0.0000    C    1  MBN        0.000000
      2  C          1.4000    0.0000    0.0000    C    1  MBN        0.000000
      3  C          2.1000    1.2124    0.0000    C    1  MBN        0.000000
      4  C          1.4000    2.4249    0.0000    C    1  MBN        0.000000
      5  C          0.0000    2.4249    0.0000    C    1  MBN        0.000000
      6  C         -0.7000    1.2124    0.0000    C    1  MBN        0.000000
      7  C         -2.2000    1.2123    0.0000    C    1  MBN        0.000000
      8  H         -0.5000   -0.8660    0.0000    H    1  MBN        0.000000
      9  H          1.9000   -0.8660    0.0000    H    1  MBN        0.000000
     10  H          3.1000    1.2123    0.0000    H    1  MBN        0.000000
     11  H          1.9000    3.2909    0.0000    H    1  MBN        0.000000
     12  H         -0.5000    3.2909    0.0000    H    1  MBN        0.000000
     13  H         -2.5255    0.2668    0.0000    H    1  MBN        0.000000
     14  H         -2.5256    1.6850    0.8188    H    1  MBN        0.000000
     15  H         -2.5256    1.6850   -0.8188    H    1  MBN        0.000000
@<TRIPOS>BOND
    1     1     2  1
    2     1     6  2
    3     1     8  1
    4     2     3  2
    5     2     9  1
    6     3     4  1
    7     3    10  1
    8     4     5  2
    9     4    11  1
   10     5     6  1
   11     5    12  1
   12     6     7  1
   13     7    13  1
   14     7    14  1
   15     7    15  1

@<TRIPOS>SUBSTRUCTURE
1 ****        1 TEMP                        0 ****  **** 0 ROOT

#generated by VMD
