@<TRIPOS>MOLECULE
PRO
    3    2    1    0    0
SMALL
NO_CHARGES
****
Energy = 0

@<TRIPOS>ATOM
      1  _CH3       0.0000    0.0000    0.0000    C    1  PRO        0.000000
      2  _CH2       1.5400    0.0000    0.0000    C    1  PRO        0.000000
      3  _CH3       3.0800    0.0000    0.0000    C    1  PRO        0.000000
@<TRIPOS>BOND
    1     1     2  1
    2     2     3  1

@<TRIPOS>SUBSTRUCTURE
1 ****        1 TEMP                        0 ****  **** 0 ROOT

#generated by VMD
